[root]
type=Root
children=system
eventq_index=0
full_system=false
sim_quantum=0
time_sync_enable=false
time_sync_period=100000000000
time_sync_spin_threshold=100000000

[system]
type=System
children=clk_domain dvfs_handler far_mem_ctrl generators loc_mem_ctrlrs00 loc_mem_ctrlrs01 loc_mem_ctrlrs02 loc_mem_ctrlrs03 loc_mem_ctrlrs04 loc_mem_ctrlrs05 loc_mem_ctrlrs06 loc_mem_ctrlrs07 loc_mem_ctrlrs08 loc_mem_ctrlrs09 loc_mem_ctrlrs10 loc_mem_ctrlrs11 loc_mem_ctrlrs12 loc_mem_ctrlrs13 loc_mem_ctrlrs14 loc_mem_ctrlrs15 loc_mem_ctrlrs16 loc_mem_ctrlrs17 loc_mem_ctrlrs18 loc_mem_ctrlrs19 loc_mem_ctrlrs20 loc_mem_ctrlrs21 loc_mem_ctrlrs22 loc_mem_ctrlrs23 loc_mem_ctrlrs24 loc_mem_ctrlrs25 loc_mem_ctrlrs26 loc_mem_ctrlrs27 loc_mem_ctrlrs28 loc_mem_ctrlrs29 loc_mem_ctrlrs30 loc_mem_ctrlrs31 mem_ctrl membusPolManFarMem scheds00 scheds01 scheds02 scheds03 scheds04 scheds05 scheds06 scheds07 scheds08 scheds09 scheds10 scheds11 scheds12 scheds13 scheds14 scheds15 scheds16 scheds17 scheds18 scheds19 scheds20 scheds21 scheds22 scheds23 scheds24 scheds25 scheds26 scheds27 scheds28 scheds29 scheds30 scheds31 workload
auto_unlink_shared_backstore=false
cache_line_size=64
eventq_index=0
exit_on_work_items=false
init_param=0
m5ops_base=0
mem_mode=timing
mem_ranges=
memories=system.far_mem_ctrl.dram system.loc_mem_ctrlrs00.dram system.loc_mem_ctrlrs01.dram system.loc_mem_ctrlrs02.dram system.loc_mem_ctrlrs03.dram system.loc_mem_ctrlrs04.dram system.loc_mem_ctrlrs05.dram system.loc_mem_ctrlrs06.dram system.loc_mem_ctrlrs07.dram system.loc_mem_ctrlrs08.dram system.loc_mem_ctrlrs09.dram system.loc_mem_ctrlrs10.dram system.loc_mem_ctrlrs11.dram system.loc_mem_ctrlrs12.dram system.loc_mem_ctrlrs13.dram system.loc_mem_ctrlrs14.dram system.loc_mem_ctrlrs15.dram system.loc_mem_ctrlrs16.dram system.loc_mem_ctrlrs17.dram system.loc_mem_ctrlrs18.dram system.loc_mem_ctrlrs19.dram system.loc_mem_ctrlrs20.dram system.loc_mem_ctrlrs21.dram system.loc_mem_ctrlrs22.dram system.loc_mem_ctrlrs23.dram system.loc_mem_ctrlrs24.dram system.loc_mem_ctrlrs25.dram system.loc_mem_ctrlrs26.dram system.loc_mem_ctrlrs27.dram system.loc_mem_ctrlrs28.dram system.loc_mem_ctrlrs29.dram system.loc_mem_ctrlrs30.dram system.loc_mem_ctrlrs31.dram system.mem_ctrl
mmap_using_noreserve=false
multi_thread=false
num_work_ids=16
readfile=
redirect_paths=
shadow_rom_ranges=
shared_backstore=
symbolfile=
thermal_components=
thermal_model=Null
work_begin_ckpt_count=0
work_begin_cpu_id_exit=-1
work_begin_exit_count=0
work_cpus_ckpt_count=0
work_end_ckpt_count=0
work_end_exit_count=0
work_item_id=-1
workload=system.workload

[system.clk_domain]
type=SrcClockDomain
children=voltage_domain
clock=200
domain_id=-1
eventq_index=0
init_perf_level=0
voltage_domain=system.clk_domain.voltage_domain

[system.clk_domain.voltage_domain]
type=VoltageDomain
eventq_index=0
voltage=1.0

[system.dvfs_handler]
type=DVFSHandler
domains=
enable=false
eventq_index=0
sys_clk_domain=system.clk_domain
transition_latency=100000000

[system.far_mem_ctrl]
type=MemCtrl
children=dram power_state
clk_domain=system.clk_domain
command_window=10000
disable_sanity_check=false
dram=system.far_mem_ctrl.dram
eventq_index=0
mem_sched_policy=frfcfs
min_reads_per_switch=16
min_writes_per_switch=16
power_model=
power_state=system.far_mem_ctrl.power_state
qos_policy=Null
qos_priorities=1
qos_priority_escalation=false
qos_q_policy=fifo
qos_requestors=               
qos_syncro_scheduler=false
qos_turnaround_policy=Null
static_backend_latency=10000
static_frontend_latency=10000
system=system
write_high_thresh_perc=85
write_low_thresh_perc=50
port=system.membusPolManFarMem.mem_side_ports[0]

[system.far_mem_ctrl.dram]
type=NVMInterface
children=power_state
addr_mapping=RoRaBaCoCh
banks_per_rank=16
burst_length=8
clk_domain=system.clk_domain
conf_table_reported=true
device_bus_width=64
device_rowbuffer_size=256
device_size=549755813888
devices_per_rank=1
eventq_index=0
image_file=
in_addr_map=false
kvm_map=true
max_pending_reads=64
max_pending_writes=128
null=true
power_model=
power_state=system.far_mem_ctrl.dram.power_state
range=0:3221225472
ranks_per_channel=1
read_buffer_size=128
tBURST=3332
tCK=833
tCS=1666
tREAD=150000
tRTW=1666
tSEND=14160
tWRITE=500000
tWTR=1666
two_cycle_rdwr=true
write_buffer_size=128

[system.far_mem_ctrl.dram.power_state]
type=PowerState
clk_gate_bins=20
clk_gate_max=1000000000000
clk_gate_min=1000
default_state=UNDEFINED
eventq_index=0
leaders=
possible_states=

[system.far_mem_ctrl.power_state]
type=PowerState
clk_gate_bins=20
clk_gate_max=1000000000000
clk_gate_min=1000
default_state=UNDEFINED
eventq_index=0
leaders=
possible_states=

[system.generators]
type=PyTrafficGen
children=power_state
clk_domain=system.clk_domain
cpu_id=-1
elastic_req=false
eventq_index=0
max_outstanding_reqs=0
numThreads=1
power_model=
power_state=system.generators.power_state
progress_check=1000000000
sids=
socket_id=0
ssids=
stream_gen=none
system=system
port=system.mem_ctrl.port

[system.generators.power_state]
type=PowerState
clk_gate_bins=20
clk_gate_max=1000000000000
clk_gate_min=1000
default_state=UNDEFINED
eventq_index=0
leaders=
possible_states=

[system.loc_mem_ctrlrs00]
type=MemCtrl
children=dram power_state
clk_domain=system.clk_domain
command_window=10000
disable_sanity_check=false
dram=system.loc_mem_ctrlrs00.dram
eventq_index=0
mem_sched_policy=frfcfs
min_reads_per_switch=16
min_writes_per_switch=16
power_model=
power_state=system.loc_mem_ctrlrs00.power_state
qos_policy=Null
qos_priorities=1
qos_priority_escalation=false
qos_q_policy=fifo
qos_requestors=               
qos_syncro_scheduler=false
qos_turnaround_policy=Null
static_backend_latency=10000
static_frontend_latency=10000
system=system
write_high_thresh_perc=85
write_low_thresh_perc=50
port=system.scheds00.mem_side[0]

[system.loc_mem_ctrlrs00.dram]
type=DRAMInterface
children=power_state
IDD0=0.0
IDD02=0.0
IDD2N=0.0
IDD2N2=0.0
IDD2P0=0.0
IDD2P02=0.0
IDD2P1=0.0
IDD2P12=0.0
IDD3N=0.0
IDD3N2=0.0
IDD3P0=0.0
IDD3P02=0.0
IDD3P1=0.0
IDD3P12=0.0
IDD4R=0.0
IDD4R2=0.0
IDD4W=0.0
IDD4W2=0.0
IDD5=0.0
IDD52=0.0
IDD6=0.0
IDD62=0.0
VDD=0.0
VDD2=0.0
activation_limit=32
addr_mapping=RoCoRaBaCh
bank_groups_per_rank=0
banks_per_rank=2
beats_per_clock=64
burst_length=512
clk_domain=system.clk_domain
conf_table_reported=true
data_clock_sync=false
device_bus_width=1
device_rowbuffer_size=256
device_size=4194304
devices_per_rank=1
dll=true
enable_dram_powerdown=false
eventq_index=0
image_file=
in_addr_map=false
kvm_map=true
max_accesses_per_row=16
null=true
page_policy=close
power_model=
power_state=system.loc_mem_ctrlrs00.dram.power_state
range=0:3221225472:0:64:128:256:512:1024
ranks_per_channel=1
read_buffer_size=32
tAAD=2000
tBURST=16000
tBURST_MAX=4000
tBURST_MIN=2000
tCCD_L=15000
tCCD_L_WR=15000
tCK=2000
tCL=5000
tCS=0
tCWL=5000
tPPD=0
tRAS=15000
tRCD=8000
tRCD_WR=8000
tREFI=3900000
tRFC=160000
tRP=15000
tRRD=2000
tRRD_L=2000
tRTP=7000
tRTW=0
tWR=18000
tWTR=0
tWTR_L=0
tXAW=12000
tXP=8000
tXPDLL=0
tXS=168000
tXSDLL=0
two_cycle_activate=false
write_buffer_size=64

[system.loc_mem_ctrlrs00.dram.power_state]
type=PowerState
clk_gate_bins=20
clk_gate_max=1000000000000
clk_gate_min=1000
default_state=UNDEFINED
eventq_index=0
leaders=
possible_states=

[system.loc_mem_ctrlrs00.power_state]
type=PowerState
clk_gate_bins=20
clk_gate_max=1000000000000
clk_gate_min=1000
default_state=UNDEFINED
eventq_index=0
leaders=
possible_states=

[system.loc_mem_ctrlrs01]
type=MemCtrl
children=dram power_state
clk_domain=system.clk_domain
command_window=10000
disable_sanity_check=false
dram=system.loc_mem_ctrlrs01.dram
eventq_index=0
mem_sched_policy=frfcfs
min_reads_per_switch=16
min_writes_per_switch=16
power_model=
power_state=system.loc_mem_ctrlrs01.power_state
qos_policy=Null
qos_priorities=1
qos_priority_escalation=false
qos_q_policy=fifo
qos_requestors=               
qos_syncro_scheduler=false
qos_turnaround_policy=Null
static_backend_latency=10000
static_frontend_latency=10000
system=system
write_high_thresh_perc=85
write_low_thresh_perc=50
port=system.scheds00.mem_side[1]

[system.loc_mem_ctrlrs01.dram]
type=DRAMInterface
children=power_state
IDD0=0.0
IDD02=0.0
IDD2N=0.0
IDD2N2=0.0
IDD2P0=0.0
IDD2P02=0.0
IDD2P1=0.0
IDD2P12=0.0
IDD3N=0.0
IDD3N2=0.0
IDD3P0=0.0
IDD3P02=0.0
IDD3P1=0.0
IDD3P12=0.0
IDD4R=0.0
IDD4R2=0.0
IDD4W=0.0
IDD4W2=0.0
IDD5=0.0
IDD52=0.0
IDD6=0.0
IDD62=0.0
VDD=0.0
VDD2=0.0
activation_limit=32
addr_mapping=RoCoRaBaCh
bank_groups_per_rank=0
banks_per_rank=2
beats_per_clock=64
burst_length=512
clk_domain=system.clk_domain
conf_table_reported=true
data_clock_sync=false
device_bus_width=1
device_rowbuffer_size=256
device_size=4194304
devices_per_rank=1
dll=true
enable_dram_powerdown=false
eventq_index=0
image_file=
in_addr_map=false
kvm_map=true
max_accesses_per_row=16
null=true
page_policy=close
power_model=
power_state=system.loc_mem_ctrlrs01.dram.power_state
range=0:3221225472:1:64:128:256:512:1024
ranks_per_channel=1
read_buffer_size=32
tAAD=2000
tBURST=16000
tBURST_MAX=4000
tBURST_MIN=2000
tCCD_L=15000
tCCD_L_WR=15000
tCK=2000
tCL=5000
tCS=0
tCWL=5000
tPPD=0
tRAS=15000
tRCD=8000
tRCD_WR=8000
tREFI=3900000
tRFC=160000
tRP=15000
tRRD=2000
tRRD_L=2000
tRTP=7000
tRTW=0
tWR=18000
tWTR=0
tWTR_L=0
tXAW=12000
tXP=8000
tXPDLL=0
tXS=168000
tXSDLL=0
two_cycle_activate=false
write_buffer_size=64

[system.loc_mem_ctrlrs01.dram.power_state]
type=PowerState
clk_gate_bins=20
clk_gate_max=1000000000000
clk_gate_min=1000
default_state=UNDEFINED
eventq_index=0
leaders=
possible_states=

[system.loc_mem_ctrlrs01.power_state]
type=PowerState
clk_gate_bins=20
clk_gate_max=1000000000000
clk_gate_min=1000
default_state=UNDEFINED
eventq_index=0
leaders=
possible_states=

[system.loc_mem_ctrlrs02]
type=MemCtrl
children=dram power_state
clk_domain=system.clk_domain
command_window=10000
disable_sanity_check=false
dram=system.loc_mem_ctrlrs02.dram
eventq_index=0
mem_sched_policy=frfcfs
min_reads_per_switch=16
min_writes_per_switch=16
power_model=
power_state=system.loc_mem_ctrlrs02.power_state
qos_policy=Null
qos_priorities=1
qos_priority_escalation=false
qos_q_policy=fifo
qos_requestors=               
qos_syncro_scheduler=false
qos_turnaround_policy=Null
static_backend_latency=10000
static_frontend_latency=10000
system=system
write_high_thresh_perc=85
write_low_thresh_perc=50
port=system.scheds00.mem_side[2]

[system.loc_mem_ctrlrs02.dram]
type=DRAMInterface
children=power_state
IDD0=0.0
IDD02=0.0
IDD2N=0.0
IDD2N2=0.0
IDD2P0=0.0
IDD2P02=0.0
IDD2P1=0.0
IDD2P12=0.0
IDD3N=0.0
IDD3N2=0.0
IDD3P0=0.0
IDD3P02=0.0
IDD3P1=0.0
IDD3P12=0.0
IDD4R=0.0
IDD4R2=0.0
IDD4W=0.0
IDD4W2=0.0
IDD5=0.0
IDD52=0.0
IDD6=0.0
IDD62=0.0
VDD=0.0
VDD2=0.0
activation_limit=32
addr_mapping=RoCoRaBaCh
bank_groups_per_rank=0
banks_per_rank=2
beats_per_clock=64
burst_length=512
clk_domain=system.clk_domain
conf_table_reported=true
data_clock_sync=false
device_bus_width=1
device_rowbuffer_size=256
device_size=4194304
devices_per_rank=1
dll=true
enable_dram_powerdown=false
eventq_index=0
image_file=
in_addr_map=false
kvm_map=true
max_accesses_per_row=16
null=true
page_policy=close
power_model=
power_state=system.loc_mem_ctrlrs02.dram.power_state
range=0:3221225472:2:64:128:256:512:1024
ranks_per_channel=1
read_buffer_size=32
tAAD=2000
tBURST=16000
tBURST_MAX=4000
tBURST_MIN=2000
tCCD_L=15000
tCCD_L_WR=15000
tCK=2000
tCL=5000
tCS=0
tCWL=5000
tPPD=0
tRAS=15000
tRCD=8000
tRCD_WR=8000
tREFI=3900000
tRFC=160000
tRP=15000
tRRD=2000
tRRD_L=2000
tRTP=7000
tRTW=0
tWR=18000
tWTR=0
tWTR_L=0
tXAW=12000
tXP=8000
tXPDLL=0
tXS=168000
tXSDLL=0
two_cycle_activate=false
write_buffer_size=64

[system.loc_mem_ctrlrs02.dram.power_state]
type=PowerState
clk_gate_bins=20
clk_gate_max=1000000000000
clk_gate_min=1000
default_state=UNDEFINED
eventq_index=0
leaders=
possible_states=

[system.loc_mem_ctrlrs02.power_state]
type=PowerState
clk_gate_bins=20
clk_gate_max=1000000000000
clk_gate_min=1000
default_state=UNDEFINED
eventq_index=0
leaders=
possible_states=

[system.loc_mem_ctrlrs03]
type=MemCtrl
children=dram power_state
clk_domain=system.clk_domain
command_window=10000
disable_sanity_check=false
dram=system.loc_mem_ctrlrs03.dram
eventq_index=0
mem_sched_policy=frfcfs
min_reads_per_switch=16
min_writes_per_switch=16
power_model=
power_state=system.loc_mem_ctrlrs03.power_state
qos_policy=Null
qos_priorities=1
qos_priority_escalation=false
qos_q_policy=fifo
qos_requestors=               
qos_syncro_scheduler=false
qos_turnaround_policy=Null
static_backend_latency=10000
static_frontend_latency=10000
system=system
write_high_thresh_perc=85
write_low_thresh_perc=50
port=system.scheds00.mem_side[3]

[system.loc_mem_ctrlrs03.dram]
type=DRAMInterface
children=power_state
IDD0=0.0
IDD02=0.0
IDD2N=0.0
IDD2N2=0.0
IDD2P0=0.0
IDD2P02=0.0
IDD2P1=0.0
IDD2P12=0.0
IDD3N=0.0
IDD3N2=0.0
IDD3P0=0.0
IDD3P02=0.0
IDD3P1=0.0
IDD3P12=0.0
IDD4R=0.0
IDD4R2=0.0
IDD4W=0.0
IDD4W2=0.0
IDD5=0.0
IDD52=0.0
IDD6=0.0
IDD62=0.0
VDD=0.0
VDD2=0.0
activation_limit=32
addr_mapping=RoCoRaBaCh
bank_groups_per_rank=0
banks_per_rank=2
beats_per_clock=64
burst_length=512
clk_domain=system.clk_domain
conf_table_reported=true
data_clock_sync=false
device_bus_width=1
device_rowbuffer_size=256
device_size=4194304
devices_per_rank=1
dll=true
enable_dram_powerdown=false
eventq_index=0
image_file=
in_addr_map=false
kvm_map=true
max_accesses_per_row=16
null=true
page_policy=close
power_model=
power_state=system.loc_mem_ctrlrs03.dram.power_state
range=0:3221225472:3:64:128:256:512:1024
ranks_per_channel=1
read_buffer_size=32
tAAD=2000
tBURST=16000
tBURST_MAX=4000
tBURST_MIN=2000
tCCD_L=15000
tCCD_L_WR=15000
tCK=2000
tCL=5000
tCS=0
tCWL=5000
tPPD=0
tRAS=15000
tRCD=8000
tRCD_WR=8000
tREFI=3900000
tRFC=160000
tRP=15000
tRRD=2000
tRRD_L=2000
tRTP=7000
tRTW=0
tWR=18000
tWTR=0
tWTR_L=0
tXAW=12000
tXP=8000
tXPDLL=0
tXS=168000
tXSDLL=0
two_cycle_activate=false
write_buffer_size=64

[system.loc_mem_ctrlrs03.dram.power_state]
type=PowerState
clk_gate_bins=20
clk_gate_max=1000000000000
clk_gate_min=1000
default_state=UNDEFINED
eventq_index=0
leaders=
possible_states=

[system.loc_mem_ctrlrs03.power_state]
type=PowerState
clk_gate_bins=20
clk_gate_max=1000000000000
clk_gate_min=1000
default_state=UNDEFINED
eventq_index=0
leaders=
possible_states=

[system.loc_mem_ctrlrs04]
type=MemCtrl
children=dram power_state
clk_domain=system.clk_domain
command_window=10000
disable_sanity_check=false
dram=system.loc_mem_ctrlrs04.dram
eventq_index=0
mem_sched_policy=frfcfs
min_reads_per_switch=16
min_writes_per_switch=16
power_model=
power_state=system.loc_mem_ctrlrs04.power_state
qos_policy=Null
qos_priorities=1
qos_priority_escalation=false
qos_q_policy=fifo
qos_requestors=               
qos_syncro_scheduler=false
qos_turnaround_policy=Null
static_backend_latency=10000
static_frontend_latency=10000
system=system
write_high_thresh_perc=85
write_low_thresh_perc=50
port=system.scheds00.mem_side[4]

[system.loc_mem_ctrlrs04.dram]
type=DRAMInterface
children=power_state
IDD0=0.0
IDD02=0.0
IDD2N=0.0
IDD2N2=0.0
IDD2P0=0.0
IDD2P02=0.0
IDD2P1=0.0
IDD2P12=0.0
IDD3N=0.0
IDD3N2=0.0
IDD3P0=0.0
IDD3P02=0.0
IDD3P1=0.0
IDD3P12=0.0
IDD4R=0.0
IDD4R2=0.0
IDD4W=0.0
IDD4W2=0.0
IDD5=0.0
IDD52=0.0
IDD6=0.0
IDD62=0.0
VDD=0.0
VDD2=0.0
activation_limit=32
addr_mapping=RoCoRaBaCh
bank_groups_per_rank=0
banks_per_rank=2
beats_per_clock=64
burst_length=512
clk_domain=system.clk_domain
conf_table_reported=true
data_clock_sync=false
device_bus_width=1
device_rowbuffer_size=256
device_size=4194304
devices_per_rank=1
dll=true
enable_dram_powerdown=false
eventq_index=0
image_file=
in_addr_map=false
kvm_map=true
max_accesses_per_row=16
null=true
page_policy=close
power_model=
power_state=system.loc_mem_ctrlrs04.dram.power_state
range=0:3221225472:4:64:128:256:512:1024
ranks_per_channel=1
read_buffer_size=32
tAAD=2000
tBURST=16000
tBURST_MAX=4000
tBURST_MIN=2000
tCCD_L=15000
tCCD_L_WR=15000
tCK=2000
tCL=5000
tCS=0
tCWL=5000
tPPD=0
tRAS=15000
tRCD=8000
tRCD_WR=8000
tREFI=3900000
tRFC=160000
tRP=15000
tRRD=2000
tRRD_L=2000
tRTP=7000
tRTW=0
tWR=18000
tWTR=0
tWTR_L=0
tXAW=12000
tXP=8000
tXPDLL=0
tXS=168000
tXSDLL=0
two_cycle_activate=false
write_buffer_size=64

[system.loc_mem_ctrlrs04.dram.power_state]
type=PowerState
clk_gate_bins=20
clk_gate_max=1000000000000
clk_gate_min=1000
default_state=UNDEFINED
eventq_index=0
leaders=
possible_states=

[system.loc_mem_ctrlrs04.power_state]
type=PowerState
clk_gate_bins=20
clk_gate_max=1000000000000
clk_gate_min=1000
default_state=UNDEFINED
eventq_index=0
leaders=
possible_states=

[system.loc_mem_ctrlrs05]
type=MemCtrl
children=dram power_state
clk_domain=system.clk_domain
command_window=10000
disable_sanity_check=false
dram=system.loc_mem_ctrlrs05.dram
eventq_index=0
mem_sched_policy=frfcfs
min_reads_per_switch=16
min_writes_per_switch=16
power_model=
power_state=system.loc_mem_ctrlrs05.power_state
qos_policy=Null
qos_priorities=1
qos_priority_escalation=false
qos_q_policy=fifo
qos_requestors=               
qos_syncro_scheduler=false
qos_turnaround_policy=Null
static_backend_latency=10000
static_frontend_latency=10000
system=system
write_high_thresh_perc=85
write_low_thresh_perc=50
port=system.scheds00.mem_side[5]

[system.loc_mem_ctrlrs05.dram]
type=DRAMInterface
children=power_state
IDD0=0.0
IDD02=0.0
IDD2N=0.0
IDD2N2=0.0
IDD2P0=0.0
IDD2P02=0.0
IDD2P1=0.0
IDD2P12=0.0
IDD3N=0.0
IDD3N2=0.0
IDD3P0=0.0
IDD3P02=0.0
IDD3P1=0.0
IDD3P12=0.0
IDD4R=0.0
IDD4R2=0.0
IDD4W=0.0
IDD4W2=0.0
IDD5=0.0
IDD52=0.0
IDD6=0.0
IDD62=0.0
VDD=0.0
VDD2=0.0
activation_limit=32
addr_mapping=RoCoRaBaCh
bank_groups_per_rank=0
banks_per_rank=2
beats_per_clock=64
burst_length=512
clk_domain=system.clk_domain
conf_table_reported=true
data_clock_sync=false
device_bus_width=1
device_rowbuffer_size=256
device_size=4194304
devices_per_rank=1
dll=true
enable_dram_powerdown=false
eventq_index=0
image_file=
in_addr_map=false
kvm_map=true
max_accesses_per_row=16
null=true
page_policy=close
power_model=
power_state=system.loc_mem_ctrlrs05.dram.power_state
range=0:3221225472:5:64:128:256:512:1024
ranks_per_channel=1
read_buffer_size=32
tAAD=2000
tBURST=16000
tBURST_MAX=4000
tBURST_MIN=2000
tCCD_L=15000
tCCD_L_WR=15000
tCK=2000
tCL=5000
tCS=0
tCWL=5000
tPPD=0
tRAS=15000
tRCD=8000
tRCD_WR=8000
tREFI=3900000
tRFC=160000
tRP=15000
tRRD=2000
tRRD_L=2000
tRTP=7000
tRTW=0
tWR=18000
tWTR=0
tWTR_L=0
tXAW=12000
tXP=8000
tXPDLL=0
tXS=168000
tXSDLL=0
two_cycle_activate=false
write_buffer_size=64

[system.loc_mem_ctrlrs05.dram.power_state]
type=PowerState
clk_gate_bins=20
clk_gate_max=1000000000000
clk_gate_min=1000
default_state=UNDEFINED
eventq_index=0
leaders=
possible_states=

[system.loc_mem_ctrlrs05.power_state]
type=PowerState
clk_gate_bins=20
clk_gate_max=1000000000000
clk_gate_min=1000
default_state=UNDEFINED
eventq_index=0
leaders=
possible_states=

[system.loc_mem_ctrlrs06]
type=MemCtrl
children=dram power_state
clk_domain=system.clk_domain
command_window=10000
disable_sanity_check=false
dram=system.loc_mem_ctrlrs06.dram
eventq_index=0
mem_sched_policy=frfcfs
min_reads_per_switch=16
min_writes_per_switch=16
power_model=
power_state=system.loc_mem_ctrlrs06.power_state
qos_policy=Null
qos_priorities=1
qos_priority_escalation=false
qos_q_policy=fifo
qos_requestors=               
qos_syncro_scheduler=false
qos_turnaround_policy=Null
static_backend_latency=10000
static_frontend_latency=10000
system=system
write_high_thresh_perc=85
write_low_thresh_perc=50
port=system.scheds00.mem_side[6]

[system.loc_mem_ctrlrs06.dram]
type=DRAMInterface
children=power_state
IDD0=0.0
IDD02=0.0
IDD2N=0.0
IDD2N2=0.0
IDD2P0=0.0
IDD2P02=0.0
IDD2P1=0.0
IDD2P12=0.0
IDD3N=0.0
IDD3N2=0.0
IDD3P0=0.0
IDD3P02=0.0
IDD3P1=0.0
IDD3P12=0.0
IDD4R=0.0
IDD4R2=0.0
IDD4W=0.0
IDD4W2=0.0
IDD5=0.0
IDD52=0.0
IDD6=0.0
IDD62=0.0
VDD=0.0
VDD2=0.0
activation_limit=32
addr_mapping=RoCoRaBaCh
bank_groups_per_rank=0
banks_per_rank=2
beats_per_clock=64
burst_length=512
clk_domain=system.clk_domain
conf_table_reported=true
data_clock_sync=false
device_bus_width=1
device_rowbuffer_size=256
device_size=4194304
devices_per_rank=1
dll=true
enable_dram_powerdown=false
eventq_index=0
image_file=
in_addr_map=false
kvm_map=true
max_accesses_per_row=16
null=true
page_policy=close
power_model=
power_state=system.loc_mem_ctrlrs06.dram.power_state
range=0:3221225472:6:64:128:256:512:1024
ranks_per_channel=1
read_buffer_size=32
tAAD=2000
tBURST=16000
tBURST_MAX=4000
tBURST_MIN=2000
tCCD_L=15000
tCCD_L_WR=15000
tCK=2000
tCL=5000
tCS=0
tCWL=5000
tPPD=0
tRAS=15000
tRCD=8000
tRCD_WR=8000
tREFI=3900000
tRFC=160000
tRP=15000
tRRD=2000
tRRD_L=2000
tRTP=7000
tRTW=0
tWR=18000
tWTR=0
tWTR_L=0
tXAW=12000
tXP=8000
tXPDLL=0
tXS=168000
tXSDLL=0
two_cycle_activate=false
write_buffer_size=64

[system.loc_mem_ctrlrs06.dram.power_state]
type=PowerState
clk_gate_bins=20
clk_gate_max=1000000000000
clk_gate_min=1000
default_state=UNDEFINED
eventq_index=0
leaders=
possible_states=

[system.loc_mem_ctrlrs06.power_state]
type=PowerState
clk_gate_bins=20
clk_gate_max=1000000000000
clk_gate_min=1000
default_state=UNDEFINED
eventq_index=0
leaders=
possible_states=

[system.loc_mem_ctrlrs07]
type=MemCtrl
children=dram power_state
clk_domain=system.clk_domain
command_window=10000
disable_sanity_check=false
dram=system.loc_mem_ctrlrs07.dram
eventq_index=0
mem_sched_policy=frfcfs
min_reads_per_switch=16
min_writes_per_switch=16
power_model=
power_state=system.loc_mem_ctrlrs07.power_state
qos_policy=Null
qos_priorities=1
qos_priority_escalation=false
qos_q_policy=fifo
qos_requestors=               
qos_syncro_scheduler=false
qos_turnaround_policy=Null
static_backend_latency=10000
static_frontend_latency=10000
system=system
write_high_thresh_perc=85
write_low_thresh_perc=50
port=system.scheds00.mem_side[7]

[system.loc_mem_ctrlrs07.dram]
type=DRAMInterface
children=power_state
IDD0=0.0
IDD02=0.0
IDD2N=0.0
IDD2N2=0.0
IDD2P0=0.0
IDD2P02=0.0
IDD2P1=0.0
IDD2P12=0.0
IDD3N=0.0
IDD3N2=0.0
IDD3P0=0.0
IDD3P02=0.0
IDD3P1=0.0
IDD3P12=0.0
IDD4R=0.0
IDD4R2=0.0
IDD4W=0.0
IDD4W2=0.0
IDD5=0.0
IDD52=0.0
IDD6=0.0
IDD62=0.0
VDD=0.0
VDD2=0.0
activation_limit=32
addr_mapping=RoCoRaBaCh
bank_groups_per_rank=0
banks_per_rank=2
beats_per_clock=64
burst_length=512
clk_domain=system.clk_domain
conf_table_reported=true
data_clock_sync=false
device_bus_width=1
device_rowbuffer_size=256
device_size=4194304
devices_per_rank=1
dll=true
enable_dram_powerdown=false
eventq_index=0
image_file=
in_addr_map=false
kvm_map=true
max_accesses_per_row=16
null=true
page_policy=close
power_model=
power_state=system.loc_mem_ctrlrs07.dram.power_state
range=0:3221225472:7:64:128:256:512:1024
ranks_per_channel=1
read_buffer_size=32
tAAD=2000
tBURST=16000
tBURST_MAX=4000
tBURST_MIN=2000
tCCD_L=15000
tCCD_L_WR=15000
tCK=2000
tCL=5000
tCS=0
tCWL=5000
tPPD=0
tRAS=15000
tRCD=8000
tRCD_WR=8000
tREFI=3900000
tRFC=160000
tRP=15000
tRRD=2000
tRRD_L=2000
tRTP=7000
tRTW=0
tWR=18000
tWTR=0
tWTR_L=0
tXAW=12000
tXP=8000
tXPDLL=0
tXS=168000
tXSDLL=0
two_cycle_activate=false
write_buffer_size=64

[system.loc_mem_ctrlrs07.dram.power_state]
type=PowerState
clk_gate_bins=20
clk_gate_max=1000000000000
clk_gate_min=1000
default_state=UNDEFINED
eventq_index=0
leaders=
possible_states=

[system.loc_mem_ctrlrs07.power_state]
type=PowerState
clk_gate_bins=20
clk_gate_max=1000000000000
clk_gate_min=1000
default_state=UNDEFINED
eventq_index=0
leaders=
possible_states=

[system.loc_mem_ctrlrs08]
type=MemCtrl
children=dram power_state
clk_domain=system.clk_domain
command_window=10000
disable_sanity_check=false
dram=system.loc_mem_ctrlrs08.dram
eventq_index=0
mem_sched_policy=frfcfs
min_reads_per_switch=16
min_writes_per_switch=16
power_model=
power_state=system.loc_mem_ctrlrs08.power_state
qos_policy=Null
qos_priorities=1
qos_priority_escalation=false
qos_q_policy=fifo
qos_requestors=               
qos_syncro_scheduler=false
qos_turnaround_policy=Null
static_backend_latency=10000
static_frontend_latency=10000
system=system
write_high_thresh_perc=85
write_low_thresh_perc=50
port=system.scheds00.mem_side[8]

[system.loc_mem_ctrlrs08.dram]
type=DRAMInterface
children=power_state
IDD0=0.0
IDD02=0.0
IDD2N=0.0
IDD2N2=0.0
IDD2P0=0.0
IDD2P02=0.0
IDD2P1=0.0
IDD2P12=0.0
IDD3N=0.0
IDD3N2=0.0
IDD3P0=0.0
IDD3P02=0.0
IDD3P1=0.0
IDD3P12=0.0
IDD4R=0.0
IDD4R2=0.0
IDD4W=0.0
IDD4W2=0.0
IDD5=0.0
IDD52=0.0
IDD6=0.0
IDD62=0.0
VDD=0.0
VDD2=0.0
activation_limit=32
addr_mapping=RoCoRaBaCh
bank_groups_per_rank=0
banks_per_rank=2
beats_per_clock=64
burst_length=512
clk_domain=system.clk_domain
conf_table_reported=true
data_clock_sync=false
device_bus_width=1
device_rowbuffer_size=256
device_size=4194304
devices_per_rank=1
dll=true
enable_dram_powerdown=false
eventq_index=0
image_file=
in_addr_map=false
kvm_map=true
max_accesses_per_row=16
null=true
page_policy=close
power_model=
power_state=system.loc_mem_ctrlrs08.dram.power_state
range=0:3221225472:8:64:128:256:512:1024
ranks_per_channel=1
read_buffer_size=32
tAAD=2000
tBURST=16000
tBURST_MAX=4000
tBURST_MIN=2000
tCCD_L=15000
tCCD_L_WR=15000
tCK=2000
tCL=5000
tCS=0
tCWL=5000
tPPD=0
tRAS=15000
tRCD=8000
tRCD_WR=8000
tREFI=3900000
tRFC=160000
tRP=15000
tRRD=2000
tRRD_L=2000
tRTP=7000
tRTW=0
tWR=18000
tWTR=0
tWTR_L=0
tXAW=12000
tXP=8000
tXPDLL=0
tXS=168000
tXSDLL=0
two_cycle_activate=false
write_buffer_size=64

[system.loc_mem_ctrlrs08.dram.power_state]
type=PowerState
clk_gate_bins=20
clk_gate_max=1000000000000
clk_gate_min=1000
default_state=UNDEFINED
eventq_index=0
leaders=
possible_states=

[system.loc_mem_ctrlrs08.power_state]
type=PowerState
clk_gate_bins=20
clk_gate_max=1000000000000
clk_gate_min=1000
default_state=UNDEFINED
eventq_index=0
leaders=
possible_states=

[system.loc_mem_ctrlrs09]
type=MemCtrl
children=dram power_state
clk_domain=system.clk_domain
command_window=10000
disable_sanity_check=false
dram=system.loc_mem_ctrlrs09.dram
eventq_index=0
mem_sched_policy=frfcfs
min_reads_per_switch=16
min_writes_per_switch=16
power_model=
power_state=system.loc_mem_ctrlrs09.power_state
qos_policy=Null
qos_priorities=1
qos_priority_escalation=false
qos_q_policy=fifo
qos_requestors=               
qos_syncro_scheduler=false
qos_turnaround_policy=Null
static_backend_latency=10000
static_frontend_latency=10000
system=system
write_high_thresh_perc=85
write_low_thresh_perc=50
port=system.scheds00.mem_side[9]

[system.loc_mem_ctrlrs09.dram]
type=DRAMInterface
children=power_state
IDD0=0.0
IDD02=0.0
IDD2N=0.0
IDD2N2=0.0
IDD2P0=0.0
IDD2P02=0.0
IDD2P1=0.0
IDD2P12=0.0
IDD3N=0.0
IDD3N2=0.0
IDD3P0=0.0
IDD3P02=0.0
IDD3P1=0.0
IDD3P12=0.0
IDD4R=0.0
IDD4R2=0.0
IDD4W=0.0
IDD4W2=0.0
IDD5=0.0
IDD52=0.0
IDD6=0.0
IDD62=0.0
VDD=0.0
VDD2=0.0
activation_limit=32
addr_mapping=RoCoRaBaCh
bank_groups_per_rank=0
banks_per_rank=2
beats_per_clock=64
burst_length=512
clk_domain=system.clk_domain
conf_table_reported=true
data_clock_sync=false
device_bus_width=1
device_rowbuffer_size=256
device_size=4194304
devices_per_rank=1
dll=true
enable_dram_powerdown=false
eventq_index=0
image_file=
in_addr_map=false
kvm_map=true
max_accesses_per_row=16
null=true
page_policy=close
power_model=
power_state=system.loc_mem_ctrlrs09.dram.power_state
range=0:3221225472:9:64:128:256:512:1024
ranks_per_channel=1
read_buffer_size=32
tAAD=2000
tBURST=16000
tBURST_MAX=4000
tBURST_MIN=2000
tCCD_L=15000
tCCD_L_WR=15000
tCK=2000
tCL=5000
tCS=0
tCWL=5000
tPPD=0
tRAS=15000
tRCD=8000
tRCD_WR=8000
tREFI=3900000
tRFC=160000
tRP=15000
tRRD=2000
tRRD_L=2000
tRTP=7000
tRTW=0
tWR=18000
tWTR=0
tWTR_L=0
tXAW=12000
tXP=8000
tXPDLL=0
tXS=168000
tXSDLL=0
two_cycle_activate=false
write_buffer_size=64

[system.loc_mem_ctrlrs09.dram.power_state]
type=PowerState
clk_gate_bins=20
clk_gate_max=1000000000000
clk_gate_min=1000
default_state=UNDEFINED
eventq_index=0
leaders=
possible_states=

[system.loc_mem_ctrlrs09.power_state]
type=PowerState
clk_gate_bins=20
clk_gate_max=1000000000000
clk_gate_min=1000
default_state=UNDEFINED
eventq_index=0
leaders=
possible_states=

[system.loc_mem_ctrlrs10]
type=MemCtrl
children=dram power_state
clk_domain=system.clk_domain
command_window=10000
disable_sanity_check=false
dram=system.loc_mem_ctrlrs10.dram
eventq_index=0
mem_sched_policy=frfcfs
min_reads_per_switch=16
min_writes_per_switch=16
power_model=
power_state=system.loc_mem_ctrlrs10.power_state
qos_policy=Null
qos_priorities=1
qos_priority_escalation=false
qos_q_policy=fifo
qos_requestors=               
qos_syncro_scheduler=false
qos_turnaround_policy=Null
static_backend_latency=10000
static_frontend_latency=10000
system=system
write_high_thresh_perc=85
write_low_thresh_perc=50
port=system.scheds00.mem_side[10]

[system.loc_mem_ctrlrs10.dram]
type=DRAMInterface
children=power_state
IDD0=0.0
IDD02=0.0
IDD2N=0.0
IDD2N2=0.0
IDD2P0=0.0
IDD2P02=0.0
IDD2P1=0.0
IDD2P12=0.0
IDD3N=0.0
IDD3N2=0.0
IDD3P0=0.0
IDD3P02=0.0
IDD3P1=0.0
IDD3P12=0.0
IDD4R=0.0
IDD4R2=0.0
IDD4W=0.0
IDD4W2=0.0
IDD5=0.0
IDD52=0.0
IDD6=0.0
IDD62=0.0
VDD=0.0
VDD2=0.0
activation_limit=32
addr_mapping=RoCoRaBaCh
bank_groups_per_rank=0
banks_per_rank=2
beats_per_clock=64
burst_length=512
clk_domain=system.clk_domain
conf_table_reported=true
data_clock_sync=false
device_bus_width=1
device_rowbuffer_size=256
device_size=4194304
devices_per_rank=1
dll=true
enable_dram_powerdown=false
eventq_index=0
image_file=
in_addr_map=false
kvm_map=true
max_accesses_per_row=16
null=true
page_policy=close
power_model=
power_state=system.loc_mem_ctrlrs10.dram.power_state
range=0:3221225472:10:64:128:256:512:1024
ranks_per_channel=1
read_buffer_size=32
tAAD=2000
tBURST=16000
tBURST_MAX=4000
tBURST_MIN=2000
tCCD_L=15000
tCCD_L_WR=15000
tCK=2000
tCL=5000
tCS=0
tCWL=5000
tPPD=0
tRAS=15000
tRCD=8000
tRCD_WR=8000
tREFI=3900000
tRFC=160000
tRP=15000
tRRD=2000
tRRD_L=2000
tRTP=7000
tRTW=0
tWR=18000
tWTR=0
tWTR_L=0
tXAW=12000
tXP=8000
tXPDLL=0
tXS=168000
tXSDLL=0
two_cycle_activate=false
write_buffer_size=64

[system.loc_mem_ctrlrs10.dram.power_state]
type=PowerState
clk_gate_bins=20
clk_gate_max=1000000000000
clk_gate_min=1000
default_state=UNDEFINED
eventq_index=0
leaders=
possible_states=

[system.loc_mem_ctrlrs10.power_state]
type=PowerState
clk_gate_bins=20