[root]
type=Root
children=system
eventq_index=0
full_system=false
sim_quantum=0
time_sync_enable=false
time_sync_period=100000000000
time_sync_spin_threshold=100000000

[system]
type=System
children=clk_domain dvfs_handler far_mem_ctrl0 far_mem_ctrl1 generators00 generators01 generators02 generators03 generators04 generators05 generators06 generators07 generators08 generators09 generators10 generators11 generators12 generators13 generators14 generators15 generators16 generators17 generators18 generators19 generators20 generators21 generators22 generators23 generators24 generators25 generators26 generators27 generators28 generators29 generators30 generators31 loc_mem_ctrlrs000 loc_mem_ctrlrs001 loc_mem_ctrlrs002 loc_mem_ctrlrs003 loc_mem_ctrlrs004 loc_mem_ctrlrs005 loc_mem_ctrlrs006 loc_mem_ctrlrs007 loc_mem_ctrlrs008 loc_mem_ctrlrs009 loc_mem_ctrlrs010 loc_mem_ctrlrs011 loc_mem_ctrlrs012 loc_mem_ctrlrs013 loc_mem_ctrlrs014 loc_mem_ctrlrs015 loc_mem_ctrlrs016 loc_mem_ctrlrs017 loc_mem_ctrlrs018 loc_mem_ctrlrs019 loc_mem_ctrlrs020 loc_mem_ctrlrs021 loc_mem_ctrlrs022 loc_mem_ctrlrs023 loc_mem_ctrlrs024 loc_mem_ctrlrs025 loc_mem_ctrlrs026 loc_mem_ctrlrs027 loc_mem_ctrlrs028 loc_mem_ctrlrs029 loc_mem_ctrlrs030 loc_mem_ctrlrs031 loc_mem_ctrlrs032 loc_mem_ctrlrs033 loc_mem_ctrlrs034 loc_mem_ctrlrs035 loc_mem_ctrlrs036 loc_mem_ctrlrs037 loc_mem_ctrlrs038 loc_mem_ctrlrs039 loc_mem_ctrlrs040 loc_mem_ctrlrs041 loc_mem_ctrlrs042 loc_mem_ctrlrs043 loc_mem_ctrlrs044 loc_mem_ctrlrs045 loc_mem_ctrlrs046 loc_mem_ctrlrs047 loc_mem_ctrlrs048 loc_mem_ctrlrs049 loc_mem_ctrlrs050 loc_mem_ctrlrs051 loc_mem_ctrlrs052 loc_mem_ctrlrs053 loc_mem_ctrlrs054 loc_mem_ctrlrs055 loc_mem_ctrlrs056 loc_mem_ctrlrs057 loc_mem_ctrlrs058 loc_mem_ctrlrs059 loc_mem_ctrlrs060 loc_mem_ctrlrs061 loc_mem_ctrlrs062 loc_mem_ctrlrs063 loc_mem_ctrlrs064 loc_mem_ctrlrs065 loc_mem_ctrlrs066 loc_mem_ctrlrs067 loc_mem_ctrlrs068 loc_mem_ctrlrs069 loc_mem_ctrlrs070 loc_mem_ctrlrs071 loc_mem_ctrlrs072 loc_mem_ctrlrs073 loc_mem_ctrlrs074 loc_mem_ctrlrs075 loc_mem_ctrlrs076 loc_mem_ctrlrs077 loc_mem_ctrlrs078 loc_mem_ctrlrs079 loc_mem_ctrlrs080 loc_mem_ctrlrs081 loc_mem_ctrlrs082 loc_mem_ctrlrs083 loc_mem_ctrlrs084 loc_mem_ctrlrs085 loc_mem_ctrlrs086 loc_mem_ctrlrs087 loc_mem_ctrlrs088 loc_mem_ctrlrs089 loc_mem_ctrlrs090 loc_mem_ctrlrs091 loc_mem_ctrlrs092 loc_mem_ctrlrs093 loc_mem_ctrlrs094 loc_mem_ctrlrs095 loc_mem_ctrlrs096 loc_mem_ctrlrs097 loc_mem_ctrlrs098 loc_mem_ctrlrs099 loc_mem_ctrlrs100 loc_mem_ctrlrs101 loc_mem_ctrlrs102 loc_mem_ctrlrs103 loc_mem_ctrlrs104 loc_mem_ctrlrs105 loc_mem_ctrlrs106 loc_mem_ctrlrs107 loc_mem_ctrlrs108 loc_mem_ctrlrs109 loc_mem_ctrlrs110 loc_mem_ctrlrs111 loc_mem_ctrlrs112 loc_mem_ctrlrs113 loc_mem_ctrlrs114 loc_mem_ctrlrs115 loc_mem_ctrlrs116 loc_mem_ctrlrs117 loc_mem_ctrlrs118 loc_mem_ctrlrs119 loc_mem_ctrlrs120 loc_mem_ctrlrs121 loc_mem_ctrlrs122 loc_mem_ctrlrs123 loc_mem_ctrlrs124 loc_mem_ctrlrs125 loc_mem_ctrlrs126 loc_mem_ctrlrs127 mem_ctrl0 mem_ctrl1 membus scheds0 scheds1 workload
auto_unlink_shared_backstore=false
cache_line_size=64
eventq_index=0
exit_on_work_items=false
init_param=0
m5ops_base=0
mem_mode=timing
mem_ranges=
memories=system.far_mem_ctrl0.dram system.far_mem_ctrl1.dram system.loc_mem_ctrlrs000.dram system.loc_mem_ctrlrs001.dram system.loc_mem_ctrlrs002.dram system.loc_mem_ctrlrs003.dram system.loc_mem_ctrlrs004.dram system.loc_mem_ctrlrs005.dram system.loc_mem_ctrlrs006.dram system.loc_mem_ctrlrs007.dram system.loc_mem_ctrlrs008.dram system.loc_mem_ctrlrs009.dram system.loc_mem_ctrlrs010.dram system.loc_mem_ctrlrs011.dram system.loc_mem_ctrlrs012.dram system.loc_mem_ctrlrs013.dram system.loc_mem_ctrlrs014.dram system.loc_mem_ctrlrs015.dram system.loc_mem_ctrlrs016.dram system.loc_mem_ctrlrs017.dram system.loc_mem_ctrlrs018.dram system.loc_mem_ctrlrs019.dram system.loc_mem_ctrlrs020.dram system.loc_mem_ctrlrs021.dram system.loc_mem_ctrlrs022.dram system.loc_mem_ctrlrs023.dram system.loc_mem_ctrlrs024.dram system.loc_mem_ctrlrs025.dram system.loc_mem_ctrlrs026.dram system.loc_mem_ctrlrs027.dram system.loc_mem_ctrlrs028.dram system.loc_mem_ctrlrs029.dram system.loc_mem_ctrlrs030.dram system.loc_mem_ctrlrs031.dram system.loc_mem_ctrlrs032.dram system.loc_mem_ctrlrs033.dram system.loc_mem_ctrlrs034.dram system.loc_mem_ctrlrs035.dram system.loc_mem_ctrlrs036.dram system.loc_mem_ctrlrs037.dram system.loc_mem_ctrlrs038.dram system.loc_mem_ctrlrs039.dram system.loc_mem_ctrlrs040.dram system.loc_mem_ctrlrs041.dram system.loc_mem_ctrlrs042.dram system.loc_mem_ctrlrs043.dram system.loc_mem_ctrlrs044.dram system.loc_mem_ctrlrs045.dram system.loc_mem_ctrlrs046.dram system.loc_mem_ctrlrs047.dram system.loc_mem_ctrlrs048.dram system.loc_mem_ctrlrs049.dram system.loc_mem_ctrlrs050.dram system.loc_mem_ctrlrs051.dram system.loc_mem_ctrlrs052.dram system.loc_mem_ctrlrs053.dram system.loc_mem_ctrlrs054.dram system.loc_mem_ctrlrs055.dram system.loc_mem_ctrlrs056.dram system.loc_mem_ctrlrs057.dram system.loc_mem_ctrlrs058.dram system.loc_mem_ctrlrs059.dram system.loc_mem_ctrlrs060.dram system.loc_mem_ctrlrs061.dram system.loc_mem_ctrlrs062.dram system.loc_mem_ctrlrs063.dram system.loc_mem_ctrlrs064.dram system.loc_mem_ctrlrs065.dram system.loc_mem_ctrlrs066.dram system.loc_mem_ctrlrs067.dram system.loc_mem_ctrlrs068.dram system.loc_mem_ctrlrs069.dram system.loc_mem_ctrlrs070.dram system.loc_mem_ctrlrs071.dram system.loc_mem_ctrlrs072.dram system.loc_mem_ctrlrs073.dram system.loc_mem_ctrlrs074.dram system.loc_mem_ctrlrs075.dram system.loc_mem_ctrlrs076.dram system.loc_mem_ctrlrs077.dram system.loc_mem_ctrlrs078.dram system.loc_mem_ctrlrs079.dram system.loc_mem_ctrlrs080.dram system.loc_mem_ctrlrs081.dram system.loc_mem_ctrlrs082.dram system.loc_mem_ctrlrs083.dram system.loc_mem_ctrlrs084.dram system.loc_mem_ctrlrs085.dram system.loc_mem_ctrlrs086.dram system.loc_mem_ctrlrs087.dram system.loc_mem_ctrlrs088.dram system.loc_mem_ctrlrs089.dram system.loc_mem_ctrlrs090.dram system.loc_mem_ctrlrs091.dram system.loc_mem_ctrlrs092.dram system.loc_mem_ctrlrs093.dram system.loc_mem_ctrlrs094.dram system.loc_mem_ctrlrs095.dram system.loc_mem_ctrlrs096.dram system.loc_mem_ctrlrs097.dram system.loc_mem_ctrlrs098.dram system.loc_mem_ctrlrs099.dram system.loc_mem_ctrlrs100.dram system.loc_mem_ctrlrs101.dram system.loc_mem_ctrlrs102.dram system.loc_mem_ctrlrs103.dram system.loc_mem_ctrlrs104.dram system.loc_mem_ctrlrs105.dram system.loc_mem_ctrlrs106.dram system.loc_mem_ctrlrs107.dram system.loc_mem_ctrlrs108.dram system.loc_mem_ctrlrs109.dram system.loc_mem_ctrlrs110.dram system.loc_mem_ctrlrs111.dram system.loc_mem_ctrlrs112.dram system.loc_mem_ctrlrs113.dram system.loc_mem_ctrlrs114.dram system.loc_mem_ctrlrs115.dram system.loc_mem_ctrlrs116.dram system.loc_mem_ctrlrs117.dram system.loc_mem_ctrlrs118.dram system.loc_mem_ctrlrs119.dram system.loc_mem_ctrlrs120.dram system.loc_mem_ctrlrs121.dram system.loc_mem_ctrlrs122.dram system.loc_mem_ctrlrs123.dram system.loc_mem_ctrlrs124.dram system.loc_mem_ctrlrs125.dram system.loc_mem_ctrlrs126.dram system.loc_mem_ctrlrs127.dram system.mem_ctrl0 system.mem_ctrl1
mmap_using_noreserve=false
multi_thread=false
num_work_ids=16
readfile=
redirect_paths=
shadow_rom_ranges=
shared_backstore=
symbolfile=
thermal_components=
thermal_model=Null
work_begin_ckpt_count=0
work_begin_cpu_id_exit=-1
work_begin_exit_count=0
work_cpus_ckpt_count=0
work_end_ckpt_count=0
work_end_exit_count=0
work_item_id=-1
workload=system.workload

[system.clk_domain]
type=SrcClockDomain
children=voltage_domain
clock=200
domain_id=-1
eventq_index=0
init_perf_level=0
voltage_domain=system.clk_domain.voltage_domain

[system.clk_domain.voltage_domain]
type=VoltageDomain
eventq_index=0
voltage=1.0

[system.dvfs_handler]
type=DVFSHandler
domains=
enable=false
eventq_index=0
sys_clk_domain=system.clk_domain
transition_latency=100000000

[system.far_mem_ctrl0]
type=MemCtrl
children=dram power_state
clk_domain=system.clk_domain
command_window=10000
disable_sanity_check=false
dram=system.far_mem_ctrl0.dram
eventq_index=0
mem_sched_policy=frfcfs
min_reads_per_switch=16
min_writes_per_switch=16
power_model=
power_state=system.far_mem_ctrl0.power_state
qos_policy=Null
qos_priorities=1
qos_priority_escalation=false
qos_q_policy=fifo
qos_requestors=               
qos_syncro_scheduler=false
qos_turnaround_policy=Null
static_backend_latency=10000
static_frontend_latency=10000
system=system
write_high_thresh_perc=85
write_low_thresh_perc=50
port=system.mem_ctrl0.far_req_port

[system.far_mem_ctrl0.dram]
type=NVMInterface
children=power_state
addr_mapping=RoRaBaCoCh
banks_per_rank=16
burst_length=8
clk_domain=system.clk_domain
conf_table_reported=true
device_bus_width=64
device_rowbuffer_size=256
device_size=549755813888
devices_per_rank=1
eventq_index=0
image_file=
in_addr_map=false
kvm_map=true
max_pending_reads=64
max_pending_writes=128
null=true
power_model=
power_state=system.far_mem_ctrl0.dram.power_state
range=0:4294967296
ranks_per_channel=1
read_buffer_size=64
tBURST=3332
tCK=833
tCS=1666
tREAD=150000
tRTW=1666
tSEND=14160
tWRITE=500000
tWTR=1666
two_cycle_rdwr=true
write_buffer_size=128

[system.far_mem_ctrl0.dram.power_state]
type=PowerState
clk_gate_bins=20
clk_gate_max=1000000000000
clk_gate_min=1000
default_state=UNDEFINED
eventq_index=0
leaders=
possible_states=

[system.far_mem_ctrl0.power_state]
type=PowerState
clk_gate_bins=20
clk_gate_max=1000000000000
clk_gate_min=1000
default_state=UNDEFINED
eventq_index=0
leaders=
possible_states=

[system.far_mem_ctrl1]
type=MemCtrl
children=dram power_state
clk_domain=system.clk_domain
command_window=10000
disable_sanity_check=false
dram=system.far_mem_ctrl1.dram
eventq_index=0
mem_sched_policy=frfcfs
min_reads_per_switch=16
min_writes_per_switch=16
power_model=
power_state=system.far_mem_ctrl1.power_state
qos_policy=Null
qos_priorities=1
qos_priority_escalation=false
qos_q_policy=fifo
qos_requestors=               
qos_syncro_scheduler=false
qos_turnaround_policy=Null
static_backend_latency=10000
static_frontend_latency=10000
system=system
write_high_thresh_perc=85
write_low_thresh_perc=50
port=system.mem_ctrl1.far_req_port

[system.far_mem_ctrl1.dram]
type=NVMInterface
children=power_state
addr_mapping=RoRaBaCoCh
banks_per_rank=16
burst_length=8
clk_domain=system.clk_domain
conf_table_reported=true
device_bus_width=64
device_rowbuffer_size=256
device_size=549755813888
devices_per_rank=1
eventq_index=0
image_file=
in_addr_map=false
kvm_map=true
max_pending_reads=64
max_pending_writes=128
null=true
power_model=
power_state=system.far_mem_ctrl1.dram.power_state
range=4294967296:8589934592
ranks_per_channel=1
read_buffer_size=64
tBURST=3332
tCK=833
tCS=1666
tREAD=150000
tRTW=1666
tSEND=14160
tWRITE=500000
tWTR=1666
two_cycle_rdwr=true
write_buffer_size=128

[system.far_mem_ctrl1.dram.power_state]
type=PowerState
clk_gate_bins=20
clk_gate_max=1000000000000
clk_gate_min=1000
default_state=UNDEFINED
eventq_index=0
leaders=
possible_states=

[system.far_mem_ctrl1.power_state]
type=PowerState
clk_gate_bins=20
clk_gate_max=1000000000000
clk_gate_min=1000
default_state=UNDEFINED
eventq_index=0
leaders=
possible_states=

[system.generators00]
type=PyTrafficGen
children=power_state
clk_domain=system.clk_domain
cpu_id=-1
elastic_req=false
eventq_index=0
max_outstanding_reqs=0
numThreads=1
power_model=
power_state=system.generators00.power_state
progress_check=1000000000
sids=
socket_id=0
ssids=
stream_gen=none
system=system
port=system.membus.cpu_side_ports[0]

[system.generators00.power_state]
type=PowerState
clk_gate_bins=20
clk_gate_max=1000000000000
clk_gate_min=1000
default_state=UNDEFINED
eventq_index=0
leaders=
possible_states=

[system.generators01]
type=PyTrafficGen
children=power_state
clk_domain=system.clk_domain
cpu_id=-1
elastic_req=false
eventq_index=0
max_outstanding_reqs=0
numThreads=1
power_model=
power_state=system.generators01.power_state
progress_check=1000000000
sids=
socket_id=0
ssids=
stream_gen=none
system=system
port=system.membus.cpu_side_ports[1]

[system.generators01.power_state]
type=PowerState
clk_gate_bins=20
clk_gate_max=1000000000000
clk_gate_min=1000
default_state=UNDEFINED
eventq_index=0
leaders=
possible_states=

[system.generators02]
type=PyTrafficGen
children=power_state
clk_domain=system.clk_domain
cpu_id=-1
elastic_req=false
eventq_index=0
max_outstanding_reqs=0
numThreads=1
power_model=
power_state=system.generators02.power_state
progress_check=1000000000
sids=
socket_id=0
ssids=
stream_gen=none
system=system
port=system.membus.cpu_side_ports[2]

[system.generators02.power_state]
type=PowerState
clk_gate_bins=20
clk_gate_max=1000000000000
clk_gate_min=1000
default_state=UNDEFINED
eventq_index=0
leaders=
possible_states=

[system.generators03]
type=PyTrafficGen
children=power_state
clk_domain=system.clk_domain
cpu_id=-1
elastic_req=false
eventq_index=0
max_outstanding_reqs=0
numThreads=1
power_model=
power_state=system.generators03.power_state
progress_check=1000000000
sids=
socket_id=0
ssids=
stream_gen=none
system=system
port=system.membus.cpu_side_ports[3]

[system.generators03.power_state]
type=PowerState
clk_gate_bins=20
clk_gate_max=1000000000000
clk_gate_min=1000
default_state=UNDEFINED
eventq_index=0
leaders=
possible_states=

[system.generators04]
type=PyTrafficGen
children=power_state
clk_domain=system.clk_domain
cpu_id=-1
elastic_req=false
eventq_index=0
max_outstanding_reqs=0
numThreads=1
power_model=
power_state=system.generators04.power_state
progress_check=1000000000
sids=
socket_id=0
ssids=
stream_gen=none
system=system
port=system.membus.cpu_side_ports[4]

[system.generators04.power_state]
type=PowerState
clk_gate_bins=20
clk_gate_max=1000000000000
clk_gate_min=1000
default_state=UNDEFINED
eventq_index=0
leaders=
possible_states=

[system.generators05]
type=PyTrafficGen
children=power_state
clk_domain=system.clk_domain
cpu_id=-1
elastic_req=false
eventq_index=0
max_outstanding_reqs=0
numThreads=1
power_model=
power_state=system.generators05.power_state
progress_check=1000000000
sids=
socket_id=0
ssids=
stream_gen=none
system=system
port=system.membus.cpu_side_ports[5]

[system.generators05.power_state]
type=PowerState
clk_gate_bins=20
clk_gate_max=1000000000000
clk_gate_min=1000
default_state=UNDEFINED
eventq_index=0
leaders=
possible_states=

[system.generators06]
type=PyTrafficGen
children=power_state
clk_domain=system.clk_domain
cpu_id=-1
elastic_req=false
eventq_index=0
max_outstanding_reqs=0
numThreads=1
power_model=
power_state=system.generators06.power_state
progress_check=1000000000
sids=
socket_id=0
ssids=
stream_gen=none
system=system
port=system.membus.cpu_side_ports[6]

[system.generators06.power_state]
type=PowerState
clk_gate_bins=20
clk_gate_max=1000000000000
clk_gate_min=1000
default_state=UNDEFINED
eventq_index=0
leaders=
possible_states=

[system.generators07]
type=PyTrafficGen
children=power_state
clk_domain=system.clk_domain
cpu_id=-1
elastic_req=false
eventq_index=0
max_outstanding_reqs=0
numThreads=1
power_model=
power_state=system.generators07.power_state
progress_check=1000000000
sids=
socket_id=0
ssids=
stream_gen=none
system=system
port=system.membus.cpu_side_ports[7]

[system.generators07.power_state]
type=PowerState
clk_gate_bins=20
clk_gate_max=1000000000000
clk_gate_min=1000
default_state=UNDEFINED
eventq_index=0
leaders=
possible_states=

[system.generators08]
type=PyTrafficGen
children=power_state
clk_domain=system.clk_domain
cpu_id=-1
elastic_req=false
eventq_index=0
max_outstanding_reqs=0
numThreads=1
power_model=
power_state=system.generators08.power_state
progress_check=1000000000
sids=
socket_id=0
ssids=
stream_gen=none
system=system
port=system.membus.cpu_side_ports[8]

[system.generators08.power_state]
type=PowerState
clk_gate_bins=20
clk_gate_max=1000000000000
clk_gate_min=1000
default_state=UNDEFINED
eventq_index=0
leaders=
possible_states=

[system.generators09]
type=PyTrafficGen
children=power_state
clk_domain=system.clk_domain
cpu_id=-1
elastic_req=false
eventq_index=0
max_outstanding_reqs=0
numThreads=1
power_model=
power_state=system.generators09.power_state
progress_check=1000000000
sids=
socket_id=0
ssids=
stream_gen=none
system=system
port=system.membus.cpu_side_ports[9]

[system.generators09.power_state]
type=PowerState
clk_gate_bins=20
clk_gate_max=1000000000000
clk_gate_min=1000
default_state=UNDEFINED
eventq_index=0
leaders=
possible_states=

[system.generators10]
type=PyTrafficGen
children=power_state
clk_domain=system.clk_domain
cpu_id=-1
elastic_req=false
eventq_index=0
max_outstanding_reqs=0
numThreads=1
power_model=
power_state=system.generators10.power_state
progress_check=1000000000
sids=
socket_id=0
ssids=
stream_gen=none
system=system
port=system.membus.cpu_side_ports[10]

[system.generators10.power_state]
type=PowerState
clk_gate_bins=20
clk_gate_max=1000000000000
clk_gate_min=1000
default_state=UNDEFINED
eventq_index=0
leaders=
possible_states=

[system.generators11]
type=PyTrafficGen
children=power_state
clk_domain=system.clk_domain
cpu_id=-1
elastic_req=false
eventq_index=0
max_outstanding_reqs=0
numThreads=1
power_model=
power_state=system.generators11.power_state
progress_check=1000000000
sids=
socket_id=0
ssids=
stream_gen=none
system=system
port=system.membus.cpu_side_ports[11]

[system.generators11.power_state]
type=PowerState
clk_gate_bins=20
clk_gate_max=1000000000000
clk_gate_min=1000
default_state=UNDEFINED
eventq_index=0
leaders=
possible_states=

[system.generators12]
type=PyTrafficGen
children=power_state
clk_domain=system.clk_domain
cpu_id=-1
elastic_req=false
eventq_index=0
max_outstanding_reqs=0
numThreads=1
power_model=
power_state=system.generators12.power_state
progress_check=1000000000
sids=
socket_id=0
ssids=
stream_gen=none
system=system
port=system.membus.cpu_side_ports[12]

[system.generators12.power_state]
type=PowerState
clk_gate_bins=20
clk_gate_max=1000000000000
clk_gate_min=1000
default_state=UNDEFINED
eventq_index=0
leaders=
possible_states=

[system.generators13]
type=PyTrafficGen
children=power_state
clk_domain=system.clk_domain
cpu_id=-1
elastic_req=false
eventq_index=0
max_outstanding_reqs=0
numThreads=1
power_model=
power_state=system.generators13.power_state
progress_check=1000000000
sids=
socket_id=0
ssids=
stream_gen=none
system=system
port=system.membus.cpu_side_ports[13]

[system.generators13.power_state]
type=PowerState
clk_gate_bins=20
clk_gate_max=1000000000000
clk_gate_min=1000
default_state=UNDEFINED
eventq_index=0
leaders=
possible_states=

[system.generators14]
type=PyTrafficGen
children=power_state
clk_domain=system.clk_domain
cpu_id=-1
elastic_req=false
eventq_index=0
max_outstanding_reqs=0
numThreads=1
power_model=
power_state=system.generators14.power_state
progress_check=1000000000
sids=
socket_id=0
ssids=
stream_gen=none
system=system
port=system.membus.cpu_side_ports[14]

[system.generators14.power_state]
type=PowerState
clk_gate_bins=20
clk_gate_max=1000000000000
clk_gate_min=1000
default_state=UNDEFINED
eventq_index=0
leaders=
possible_states=

[system.generators15]
type=PyTrafficGen
children=power_state
clk_domain=system.clk_domain
cpu_id=-1
elastic_req=false
eventq_index=0
max_outstanding_reqs=0
numThreads=1
power_model=
power_state=system.generators15.power_state
progress_check=1000000000
sids=
socket_id=0
ssids=
stream_gen=none
system=system
port=system.membus.cpu_side_ports[15]

[system.generators15.power_state]
type=PowerState
clk_gate_bins=20
clk_gate_max=1000000000000
clk_gate_min=1000
default_state=UNDEFINED
eventq_index=0
leaders=
possible_states=

[system.generators16]
type=PyTrafficGen
children=power_state
clk_domain=system.clk_domain
cpu_id=-1
elastic_req=false
eventq_index=0
max_outstanding_reqs=0
numThreads=1
power_model=
power_state=system.generators16.power_state
progress_check=1000000000
sids=
socket_id=0
ssids=
stream_gen=none
system=system
port=system.membus.cpu_side_ports[16]

[system.generators16.power_state]
type=PowerState
clk_gate_bins=20
clk_gate_max=1000000000000
clk_gate_min=1000
default_state=UNDEFINED
eventq_index=0
leaders=
possible_states=

[system.generators17]
type=PyTrafficGen
children=power_state
clk_domain=system.clk_domain
cpu_id=-1
elastic_req=false
eventq_index=0
max_outstanding_reqs=0
numThreads=1
power_model=
power_state=system.generators17.power_state
progress_check=1000000000
sids=
socket_id=0
ssids=
stream_gen=none
system=system
port=system.membus.cpu_side_ports[17]

[system.generators17.power_state]
type=PowerState
clk_gate_bins=20
clk_gate_max=1000000000000
clk_gate_min=1000
default_state=UNDEFINED
eventq_index=0
leaders=
possible_states=

[system.generators18]
type=PyTrafficGen
children=power_state
clk_domain=system.clk_domain
cpu_id=-1
elastic_req=false
eventq_index=0
max_outstanding_reqs=0
numThreads=1
power_model=
power_state=system.generators18.power_state
progress_check=1000000000
sids=
socket_id=0
ssids=
stream_gen=none
system=system
port=system.membus.cpu_side_ports[18]

[system.generators18.power_state]
type=PowerState
clk_gate_bins=20
clk_gate_max=1000000000000
clk_gate_min=1000
default_state=UNDEFINED
eventq_index=0
leaders=
possible_states=

[system.generators19]
type=PyTrafficGen
children=power_state
clk_domain=system.clk_domain
cpu_id=-1
elastic_req=false
eventq_index=0
max_outstanding_reqs=0
numThreads=1
power_model=
power_state=system.generators19.power_state
progress_check=1000000000
sids=
socket_id=0
ssids=
stream_gen=none
system=system
port=system.membus.cpu_side_ports[19]

[system.generators19.power_state]
type=PowerState
clk_gate_bins=20
clk_gate_max=1000000000000
clk_gate_min=1000
default_state=UNDEFINED
eventq_index=0
leaders=
possible_states=

[system.generators20]
type=PyTrafficGen
children=power_state
clk_domain=system.clk_domain
cpu_id=-1
elastic_req=false
eventq_index=0
max_outstanding_reqs=0
numThreads=1
power_model=
power_state=system.generators20.power_state
progress_check=1000000000
sids=
socket_id=0
ssids=
stream_gen=none
system=system
port=system.membus.cpu_side_ports[20]

[system.generators20.power_state]
type=PowerState
clk_gate_bins=20
clk_gate_max=1000000000000
clk_gate_min=1000
default_state=UNDEFINED
eventq_index=0
leaders=
possible_states=

[system.generators21]
type=PyTrafficGen
children=power_state
clk_domain=system.clk_domain
cpu_id=-1
elastic_req=false
eventq_index=0
max_outstanding_reqs=0
numThreads=1
power_model=
power_state=system.generators21.power_state
progress_check=1000000000
sids=
socket_id=0
ssids=
stream_gen=none
system=system
port=system.membus.cpu_side_ports[21]

[system.generators21.power_state]
type=PowerState
clk_gate_bins=20
clk_gate_max=1000000000000
clk_gate_min=1000
default_state=UNDEFINED
eventq_index=0
leaders=
possible_states=

[system.generators22]
type=PyTrafficGen
children=power_state
clk_domain=system.clk_domain
cpu_id=-1
elastic_req=false
eventq_index=0
max_outstanding_reqs=0
numThreads=1
power_model=
power_state=system.generators22.power_state
progress_check=1000000000
sids=
socket_id=0
ssids=
stream_gen=none
system=system
port=system.membus.cpu_side_ports[22]

[system.generators22.power_state]
type=PowerState
clk_gate_bins=20
clk_gate_max=1000000000000
clk_gate_min=1000
default_state=UNDEFINED
eventq_index=0
leaders=
possible_states=

[system.generators23]
type=PyTrafficGen
children=power_state
clk_domain=system.clk_domain
cpu_id=-1
elastic_req=false
eventq_index=0
max_outstanding_reqs=0
numThreads=1
power_model=
power_state=system.generators23.power_state
progress_check=1000000000
sids=
socket_id=0
ssids=
stream_gen=none
system=system
port=system.membus.cpu_side_ports[23]

[system.generators23.power_state]
type=PowerState
clk_gate_bins=20
clk_gate_max=1000000000000
clk_gate_min=1000
default_state=UNDEFINED
eventq_index=0
leaders=
possible_states=

[system.generators24]
type=PyTrafficGen
children=power_state
clk_domain=system.clk_domain
cpu_id=-1
elastic_req=false
eventq_index=0
max_outstanding_reqs=0
numThreads=1
power_model=
power_state=system.generators24.power_state
progress_check=1000000000
sids=
socket_id=0
ssids=
stream_gen=none
system=system
port=system.membus.cpu_side_ports[24]

[system.generators24.power_state]
type=PowerState
clk_gate_bins=20
clk_gate_max=1000000000000
clk_gate_min=1000
default_state=UNDEFINED
eventq_index=0
leaders=
possible_states=

[system.generators25]
type=PyTrafficGen
children=power_state
clk_domain=system.clk_domain
cpu_id=-1
elastic_req=false
eventq_index=0
max_outstanding_reqs=0
numThreads=1
power_model=
power_state=system.generators25.power_state
progress_check=1000000000
sids=
socket_id=0
ssids=
stream_gen=none
system=system
port=system.membus.cpu_side_ports[25]

[system.generators25.power_state]
type=PowerState
clk_gate_bins=20
clk_gate_max=1000000000000
clk_gate_min=1000
default_state=UNDEFINED
eventq_index=0
leaders=
possible_states=

[system.generators26]
type=PyTrafficGen
children=power_state
clk_domain=system.clk_domain
cpu_id=-1
elastic_req=false
eventq_index=0
max_outstanding_reqs=0
numThreads=1
power_model=
power_state=system.generators26.power_state
progress_check=1000000000
sids=
socket_id=0
ssids=
stream_gen=none
system=system
port=system.membus.cpu_side_ports[26]

[system.generators26.power_state]
type=PowerState
clk_gate_bins=20
clk_gate_max=1000000000000
clk_gate_min=1000
default_state=UNDEFINED
eventq_index=0
leaders=
possible_states=

[system.generators27]
type=PyTrafficGen
children=power_state
clk_domain=system.clk_domain
cpu_id=-1
elastic_req=false
eventq_index=0
max_outstanding_reqs=0
numThreads=1
power_model=
power_state=system.generators27.power_state
progress_check=1000000000
sids=
socket_id=0
ssids=
stream_gen=none
system=system
port=system.membus.cpu_side_ports[27]

[system.generators27.power_state]
type=PowerState
clk_gate_bins=20
clk_gate_max=1000000000000
clk_gate_min=1000
default_state=UNDEFINED
eventq_index=0
leaders=
possible_states=

[system.generators28]
type=PyTrafficGen
children=power_state
clk_domain=system.clk_domain
cpu_id=-1
elastic_req=false
eventq_index=0
max_outstanding_reqs=0
numThreads=1
power_model=
power_state=system.generators28.power_state
progress_check=1000000000
sids=
socket_id=0
ssids=
stream_gen=none
system=system
port=system.membus.cpu_side_ports[28]

[system.generators28.power_state]
type=PowerState
clk_gate_bins=20
clk_gate_max=1000000000000
clk_gate_min=1000
default_state=UNDEFINED
eventq_index=0
leaders=
possible_states=

[system.generators29]
type=PyTrafficGen
children=power_state
clk_domain=system.clk_domain
cpu_id=-1
elastic_req=false
eventq_index=0
max_outstanding_reqs=0
numThreads=1
power_model=
power_state=system.generators29.power_state
progress_check=1000000000
sids=
socket_id=0
ssids=
stream_gen=none
system=system
port=system.membus.cpu_side_ports[29]

[system.generators29.power_state]
type=PowerState
clk_gate_bins=20
clk_gate_max=1000000000000
clk_gate_min=1000
default_state=UNDEFINED
eventq_index=0
leaders=
possible_states=

[system.generators30]
type=PyTrafficGen
children=power_state
clk_domain=system.clk_domain
cpu_id=-1
elastic_req=false
eventq_index=0
max_outstanding_reqs=0
numThreads=1
power_model=
power_state=system.generators30.power_state
progress_check=1000000000
sids=
socket_id=0
ssids=
stream_gen=none
system=system
port=system.membus.cpu_side_ports[30]

[system.generators30.power_state]
type=PowerState
clk_gate_bins=20
clk_gate_max=1000000000000
clk_gate_min=1000
default_state=UNDEFINED
eventq_index=0
leaders=
possible_states=

[system.generators31]
type=PyTrafficGen
children=power_state
clk_domain=system.clk_domain
cpu_id=-1
elastic_req=false
eventq_index=0
max_outstanding_reqs=0
numThreads=1
power_model=
power_state=system.generators31.power_state
progress_check=1000000000
sids=
socket_id=0
ssids=
stream_gen=none
system=system
port=system.membus.cpu_side_ports[31]

[system.generators31.power_state]
type=PowerState
clk_gate_bins=20
clk_gate_max=1000000000000
clk_gate_min=1000
default_state=UNDEFINED
eventq_index=0
leaders=
possible_states=

[system.loc_mem_ctrlrs000]
type=MemCtrl
children=dram power_state
clk_domain=system.clk_domain
command_window=10000
disable_sanity_check=false
dram=system.loc_mem_ctrlrs000.dram
eventq_index=0
mem_sched_policy=frfcfs
min_reads_per_switch=16
min_writes_per_switch=16
power_model=
power_state=system.loc_mem_ctrlrs000.power_state
qos_policy=Null
qos_priorities=1
qos_priority_escalation=false
qos_q_policy=fifo
qos_requestors=               
qos_syncro_scheduler=false
qos_turnaround_policy=Null
static_backend_latency=10000
static_frontend_latency=10000
system=system
write_high_thresh_perc=85
write_low_thresh_perc=50
port=system.scheds0.mem_side[0]

[system.loc_mem_ctrlrs000.dram]
type=DRAMInterface
children=power_state
IDD0=0.0
IDD02=0.0
IDD2N=0.0
IDD2N2=0.0
IDD2P0=0.0
IDD2P02=0.0
IDD2P1=0.0
IDD2P12=0.0
IDD3N=0.0
IDD3N2=0.0
IDD3P0=0.0
IDD3P02=0.0
IDD3P1=0.0
IDD3P12=0.0
IDD4R=0.0
IDD4R2=0.0
IDD4W=0.0
IDD4W2=0.0
IDD5=0.0
IDD52=0.0
IDD6=0.0
IDD62=0.0
VDD=0.0
VDD2=0.0
activation_limit=32
addr_mapping=RoCoRaBaCh
bank_groups_per_rank=0
banks_per_rank=2
beats_per_clock=64
burst_length=512
clk_domain=system.clk_domain
conf_table_reported=true
data_clock_sync=false
device_bus_width=1
device_rowbuffer_size=256
device_size=4194304
devices_per_rank=1
dll=true
enable_dram_powerdown=false
eventq_index=0
image_file=
in_addr_map=false
kvm_map=true
max_accesses_per_row=16
null=true
page_policy=close
power_model=
power_state=system.loc_mem_ctrlrs000.dram.power_state
range=0:67108864
ranks_per_channel=1
read_buffer_size=32
tAAD=2000
tBURST=16000
tBURST_MAX=4000
tBURST_MIN=2000
tCCD_L=15000
tCCD_L_WR=15000
tCK=2000
tCL=5000
tCS=0
tCWL=5000
tPPD=0
tRAS=15000
tRCD=8000
tRCD_WR=8000
tREFI=3900000
tRFC=160000
tRP=15000
tRRD=2000
tRRD_L=2000
tRTP=7000
tRTW=0
tWR=18000
tWTR=0
tWTR_L=0
tXAW=12000
tXP=8000
tXPDLL=0
tXS=168000
tXSDLL=0
two_cycle_activate=false
write_buffer_size=64

[system.loc_mem_ctrlrs000.dram.power_state]
type=PowerState
clk_gate_bins=20
clk_gate_max=1000000000000
clk_gate_min=1000
default_state=UNDEFINED
eventq_index=0
leaders=
possible_states=
