[root]
type=Root
children=system
eventq_index=0
full_system=false
sim_quantum=0
time_sync_enable=false
time_sync_period=100000000000
time_sync_spin_threshold=100000000

[system]
type=System
children=clk_domain dvfs_handler far_mem_ctrl generators00 generators01 generators02 generators03 generators04 generators05 generators06 generators07 generators08 generators09 generators10 generators11 generators12 generators13 generators14 generators15 generators16 generators17 generators18 generators19 generators20 generators21 generators22 generators23 generators24 generators25 generators26 generators27 generators28 generators29 generators30 generators31 generators32 generators33 generators34 generators35 generators36 generators37 generators38 generators39 generators40 generators41 generators42 generators43 generators44 generators45 generators46 generators47 generators48 generators49 generators50 generators51 generators52 generators53 generators54 generators55 generators56 generators57 generators58 generators59 generators60 generators61 generators62 generators63 loc_mem_ctrlrs0 loc_mem_ctrlrs1 loc_mem_ctrlrs2 loc_mem_ctrlrs3 loc_mem_ctrlrs4 loc_mem_ctrlrs5 loc_mem_ctrlrs6 loc_mem_ctrlrs7 mem_ctrl membus membusPolManFarMem membusPolManLocMem workload
auto_unlink_shared_backstore=false
cache_line_size=64
eventq_index=0
exit_on_work_items=false
init_param=0
m5ops_base=0
mem_mode=timing
mem_ranges=
memories=system.far_mem_ctrl.dram system.loc_mem_ctrlrs0.dram system.loc_mem_ctrlrs1.dram system.loc_mem_ctrlrs2.dram system.loc_mem_ctrlrs3.dram system.loc_mem_ctrlrs4.dram system.loc_mem_ctrlrs5.dram system.loc_mem_ctrlrs6.dram system.loc_mem_ctrlrs7.dram system.mem_ctrl
mmap_using_noreserve=false
multi_thread=false
num_work_ids=16
readfile=
redirect_paths=
shadow_rom_ranges=
shared_backstore=
symbolfile=
thermal_components=
thermal_model=Null
work_begin_ckpt_count=0
work_begin_cpu_id_exit=-1
work_begin_exit_count=0
work_cpus_ckpt_count=0
work_end_ckpt_count=0
work_end_exit_count=0
work_item_id=-1
workload=system.workload

[system.clk_domain]
type=SrcClockDomain
children=voltage_domain
clock=200
domain_id=-1
eventq_index=0
init_perf_level=0
voltage_domain=system.clk_domain.voltage_domain

[system.clk_domain.voltage_domain]
type=VoltageDomain
eventq_index=0
voltage=1.0

[system.dvfs_handler]
type=DVFSHandler
domains=
enable=false
eventq_index=0
sys_clk_domain=system.clk_domain
transition_latency=100000000

[system.far_mem_ctrl]
type=MemCtrl
children=dram power_state
clk_domain=system.clk_domain
command_window=10000
disable_sanity_check=false
dram=system.far_mem_ctrl.dram
eventq_index=0
mem_sched_policy=frfcfs
min_reads_per_switch=16
min_writes_per_switch=16
power_model=
power_state=system.far_mem_ctrl.power_state
qos_policy=Null
qos_priorities=1
qos_priority_escalation=false
qos_q_policy=fifo
qos_requestors=               
qos_syncro_scheduler=false
qos_turnaround_policy=Null
static_backend_latency=10000
static_frontend_latency=10000
system=system
write_high_thresh_perc=85
write_low_thresh_perc=50
port=system.membusPolManFarMem.mem_side_ports[0]

[system.far_mem_ctrl.dram]
type=NVMInterface
children=power_state
addr_mapping=RoRaBaCoCh
banks_per_rank=16
burst_length=8
clk_domain=system.clk_domain
conf_table_reported=true
device_bus_width=64
device_rowbuffer_size=256
device_size=549755813888
devices_per_rank=1
eventq_index=0
image_file=
in_addr_map=false
kvm_map=true
max_pending_reads=64
max_pending_writes=128
null=true
power_model=
power_state=system.far_mem_ctrl.dram.power_state
range=0:3221225472
ranks_per_channel=1
read_buffer_size=128
tBURST=3332
tCK=833
tCS=1666
tREAD=150000
tRTW=1666
tSEND=14160
tWRITE=500000
tWTR=1666
two_cycle_rdwr=true
write_buffer_size=128

[system.far_mem_ctrl.dram.power_state]
type=PowerState
clk_gate_bins=20
clk_gate_max=1000000000000
clk_gate_min=1000
default_state=UNDEFINED
eventq_index=0
leaders=
possible_states=

[system.far_mem_ctrl.power_state]
type=PowerState
clk_gate_bins=20
clk_gate_max=1000000000000
clk_gate_min=1000
default_state=UNDEFINED
eventq_index=0
leaders=
possible_states=

[system.generators00]
type=PyTrafficGen
children=power_state
clk_domain=system.clk_domain
cpu_id=-1
elastic_req=false
eventq_index=0
max_outstanding_reqs=0
numThreads=1
power_model=
power_state=system.generators00.power_state
progress_check=1000000000
sids=
socket_id=0
ssids=
stream_gen=none
system=system
port=system.membus.cpu_side_ports[0]

[system.generators00.power_state]
type=PowerState
clk_gate_bins=20
clk_gate_max=1000000000000
clk_gate_min=1000
default_state=UNDEFINED
eventq_index=0
leaders=
possible_states=

[system.generators01]
type=PyTrafficGen
children=power_state
clk_domain=system.clk_domain
cpu_id=-1
elastic_req=false
eventq_index=0
max_outstanding_reqs=0
numThreads=1
power_model=
power_state=system.generators01.power_state
progress_check=1000000000
sids=
socket_id=0
ssids=
stream_gen=none
system=system
port=system.membus.cpu_side_ports[1]

[system.generators01.power_state]
type=PowerState
clk_gate_bins=20
clk_gate_max=1000000000000
clk_gate_min=1000
default_state=UNDEFINED
eventq_index=0
leaders=
possible_states=

[system.generators02]
type=PyTrafficGen
children=power_state
clk_domain=system.clk_domain
cpu_id=-1
elastic_req=false
eventq_index=0
max_outstanding_reqs=0
numThreads=1
power_model=
power_state=system.generators02.power_state
progress_check=1000000000
sids=
socket_id=0
ssids=
stream_gen=none
system=system
port=system.membus.cpu_side_ports[2]

[system.generators02.power_state]
type=PowerState
clk_gate_bins=20
clk_gate_max=1000000000000
clk_gate_min=1000
default_state=UNDEFINED
eventq_index=0
leaders=
possible_states=

[system.generators03]
type=PyTrafficGen
children=power_state
clk_domain=system.clk_domain
cpu_id=-1
elastic_req=false
eventq_index=0
max_outstanding_reqs=0
numThreads=1
power_model=
power_state=system.generators03.power_state
progress_check=1000000000
sids=
socket_id=0
ssids=
stream_gen=none
system=system
port=system.membus.cpu_side_ports[3]

[system.generators03.power_state]
type=PowerState
clk_gate_bins=20
clk_gate_max=1000000000000
clk_gate_min=1000
default_state=UNDEFINED
eventq_index=0
leaders=
possible_states=

[system.generators04]
type=PyTrafficGen
children=power_state
clk_domain=system.clk_domain
cpu_id=-1
elastic_req=false
eventq_index=0
max_outstanding_reqs=0
numThreads=1
power_model=
power_state=system.generators04.power_state
progress_check=1000000000
sids=
socket_id=0
ssids=
stream_gen=none
system=system
port=system.membus.cpu_side_ports[4]

[system.generators04.power_state]
type=PowerState
clk_gate_bins=20
clk_gate_max=1000000000000
clk_gate_min=1000
default_state=UNDEFINED
eventq_index=0
leaders=
possible_states=

[system.generators05]
type=PyTrafficGen
children=power_state
clk_domain=system.clk_domain
cpu_id=-1
elastic_req=false
eventq_index=0
max_outstanding_reqs=0
numThreads=1
power_model=
power_state=system.generators05.power_state
progress_check=1000000000
sids=
socket_id=0
ssids=
stream_gen=none
system=system
port=system.membus.cpu_side_ports[5]

[system.generators05.power_state]
type=PowerState
clk_gate_bins=20
clk_gate_max=1000000000000
clk_gate_min=1000
default_state=UNDEFINED
eventq_index=0
leaders=
possible_states=

[system.generators06]
type=PyTrafficGen
children=power_state
clk_domain=system.clk_domain
cpu_id=-1
elastic_req=false
eventq_index=0
max_outstanding_reqs=0
numThreads=1
power_model=
power_state=system.generators06.power_state
progress_check=1000000000
sids=
socket_id=0
ssids=
stream_gen=none
system=system
port=system.membus.cpu_side_ports[6]

[system.generators06.power_state]
type=PowerState
clk_gate_bins=20
clk_gate_max=1000000000000
clk_gate_min=1000
default_state=UNDEFINED
eventq_index=0
leaders=
possible_states=

[system.generators07]
type=PyTrafficGen
children=power_state
clk_domain=system.clk_domain
cpu_id=-1
elastic_req=false
eventq_index=0
max_outstanding_reqs=0
numThreads=1
power_model=
power_state=system.generators07.power_state
progress_check=1000000000
sids=
socket_id=0
ssids=
stream_gen=none
system=system
port=system.membus.cpu_side_ports[7]

[system.generators07.power_state]
type=PowerState
clk_gate_bins=20
clk_gate_max=1000000000000
clk_gate_min=1000
default_state=UNDEFINED
eventq_index=0
leaders=
possible_states=

[system.generators08]
type=PyTrafficGen
children=power_state
clk_domain=system.clk_domain
cpu_id=-1
elastic_req=false
eventq_index=0
max_outstanding_reqs=0
numThreads=1
power_model=
power_state=system.generators08.power_state
progress_check=1000000000
sids=
socket_id=0
ssids=
stream_gen=none
system=system
port=system.membus.cpu_side_ports[8]

[system.generators08.power_state]
type=PowerState
clk_gate_bins=20
clk_gate_max=1000000000000
clk_gate_min=1000
default_state=UNDEFINED
eventq_index=0
leaders=
possible_states=

[system.generators09]
type=PyTrafficGen
children=power_state
clk_domain=system.clk_domain
cpu_id=-1
elastic_req=false
eventq_index=0
max_outstanding_reqs=0
numThreads=1
power_model=
power_state=system.generators09.power_state
progress_check=1000000000
sids=
socket_id=0
ssids=
stream_gen=none
system=system
port=system.membus.cpu_side_ports[9]

[system.generators09.power_state]
type=PowerState
clk_gate_bins=20
clk_gate_max=1000000000000
clk_gate_min=1000
default_state=UNDEFINED
eventq_index=0
leaders=
possible_states=

[system.generators10]
type=PyTrafficGen
children=power_state
clk_domain=system.clk_domain
cpu_id=-1
elastic_req=false
eventq_index=0
max_outstanding_reqs=0
numThreads=1
power_model=
power_state=system.generators10.power_state
progress_check=1000000000
sids=
socket_id=0
ssids=
stream_gen=none
system=system
port=system.membus.cpu_side_ports[10]

[system.generators10.power_state]
type=PowerState
clk_gate_bins=20
clk_gate_max=1000000000000
clk_gate_min=1000
default_state=UNDEFINED
eventq_index=0
leaders=
possible_states=

[system.generators11]
type=PyTrafficGen
children=power_state
clk_domain=system.clk_domain
cpu_id=-1
elastic_req=false
eventq_index=0
max_outstanding_reqs=0
numThreads=1
power_model=
power_state=system.generators11.power_state
progress_check=1000000000
sids=
socket_id=0
ssids=
stream_gen=none
system=system
port=system.membus.cpu_side_ports[11]

[system.generators11.power_state]
type=PowerState
clk_gate_bins=20
clk_gate_max=1000000000000
clk_gate_min=1000
default_state=UNDEFINED
eventq_index=0
leaders=
possible_states=

[system.generators12]
type=PyTrafficGen
children=power_state
clk_domain=system.clk_domain
cpu_id=-1
elastic_req=false
eventq_index=0
max_outstanding_reqs=0
numThreads=1
power_model=
power_state=system.generators12.power_state
progress_check=1000000000
sids=
socket_id=0
ssids=
stream_gen=none
system=system
port=system.membus.cpu_side_ports[12]

[system.generators12.power_state]
type=PowerState
clk_gate_bins=20
clk_gate_max=1000000000000
clk_gate_min=1000
default_state=UNDEFINED
eventq_index=0
leaders=
possible_states=

[system.generators13]
type=PyTrafficGen
children=power_state
clk_domain=system.clk_domain
cpu_id=-1
elastic_req=false
eventq_index=0
max_outstanding_reqs=0
numThreads=1
power_model=
power_state=system.generators13.power_state
progress_check=1000000000
sids=
socket_id=0
ssids=
stream_gen=none
system=system
port=system.membus.cpu_side_ports[13]

[system.generators13.power_state]
type=PowerState
clk_gate_bins=20
clk_gate_max=1000000000000
clk_gate_min=1000
default_state=UNDEFINED
eventq_index=0
leaders=
possible_states=

[system.generators14]
type=PyTrafficGen
children=power_state
clk_domain=system.clk_domain
cpu_id=-1
elastic_req=false
eventq_index=0
max_outstanding_reqs=0
numThreads=1
power_model=
power_state=system.generators14.power_state
progress_check=1000000000
sids=
socket_id=0
ssids=
stream_gen=none
system=system
port=system.membus.cpu_side_ports[14]

[system.generators14.power_state]
type=PowerState
clk_gate_bins=20
clk_gate_max=1000000000000
clk_gate_min=1000
default_state=UNDEFINED
eventq_index=0
leaders=
possible_states=

[system.generators15]
type=PyTrafficGen
children=power_state
clk_domain=system.clk_domain
cpu_id=-1
elastic_req=false
eventq_index=0
max_outstanding_reqs=0
numThreads=1
power_model=
power_state=system.generators15.power_state
progress_check=1000000000
sids=
socket_id=0
ssids=
stream_gen=none
system=system
port=system.membus.cpu_side_ports[15]

[system.generators15.power_state]
type=PowerState
clk_gate_bins=20
clk_gate_max=1000000000000
clk_gate_min=1000
default_state=UNDEFINED
eventq_index=0
leaders=
possible_states=

[system.generators16]
type=PyTrafficGen
children=power_state
clk_domain=system.clk_domain
cpu_id=-1
elastic_req=false
eventq_index=0
max_outstanding_reqs=0
numThreads=1
power_model=
power_state=system.generators16.power_state
progress_check=1000000000
sids=
socket_id=0
ssids=
stream_gen=none
system=system
port=system.membus.cpu_side_ports[16]

[system.generators16.power_state]
type=PowerState
clk_gate_bins=20
clk_gate_max=1000000000000
clk_gate_min=1000
default_state=UNDEFINED
eventq_index=0
leaders=
possible_states=

[system.generators17]
type=PyTrafficGen
children=power_state
clk_domain=system.clk_domain
cpu_id=-1
elastic_req=false
eventq_index=0
max_outstanding_reqs=0
numThreads=1
power_model=
power_state=system.generators17.power_state
progress_check=1000000000
sids=
socket_id=0
ssids=
stream_gen=none
system=system
port=system.membus.cpu_side_ports[17]

[system.generators17.power_state]
type=PowerState
clk_gate_bins=20
clk_gate_max=1000000000000
clk_gate_min=1000
default_state=UNDEFINED
eventq_index=0
leaders=
possible_states=

[system.generators18]
type=PyTrafficGen
children=power_state
clk_domain=system.clk_domain
cpu_id=-1
elastic_req=false
eventq_index=0
max_outstanding_reqs=0
numThreads=1
power_model=
power_state=system.generators18.power_state
progress_check=1000000000
sids=
socket_id=0
ssids=
stream_gen=none
system=system
port=system.membus.cpu_side_ports[18]

[system.generators18.power_state]
type=PowerState
clk_gate_bins=20
clk_gate_max=1000000000000
clk_gate_min=1000
default_state=UNDEFINED
eventq_index=0
leaders=
possible_states=

[system.generators19]
type=PyTrafficGen
children=power_state
clk_domain=system.clk_domain
cpu_id=-1
elastic_req=false
eventq_index=0
max_outstanding_reqs=0
numThreads=1
power_model=
power_state=system.generators19.power_state
progress_check=1000000000
sids=
socket_id=0
ssids=
stream_gen=none
system=system
port=system.membus.cpu_side_ports[19]

[system.generators19.power_state]
type=PowerState
clk_gate_bins=20
clk_gate_max=1000000000000
clk_gate_min=1000
default_state=UNDEFINED
eventq_index=0
leaders=
possible_states=

[system.generators20]
type=PyTrafficGen
children=power_state
clk_domain=system.clk_domain
cpu_id=-1
elastic_req=false
eventq_index=0
max_outstanding_reqs=0
numThreads=1
power_model=
power_state=system.generators20.power_state
progress_check=1000000000
sids=
socket_id=0
ssids=
stream_gen=none
system=system
port=system.membus.cpu_side_ports[20]

[system.generators20.power_state]
type=PowerState
clk_gate_bins=20
clk_gate_max=1000000000000
clk_gate_min=1000
default_state=UNDEFINED
eventq_index=0
leaders=
possible_states=

[system.generators21]
type=PyTrafficGen
children=power_state
clk_domain=system.clk_domain
cpu_id=-1
elastic_req=false
eventq_index=0
max_outstanding_reqs=0
numThreads=1
power_model=
power_state=system.generators21.power_state
progress_check=1000000000
sids=
socket_id=0
ssids=
stream_gen=none
system=system
port=system.membus.cpu_side_ports[21]

[system.generators21.power_state]
type=PowerState
clk_gate_bins=20
clk_gate_max=1000000000000
clk_gate_min=1000
default_state=UNDEFINED
eventq_index=0
leaders=
possible_states=

[system.generators22]
type=PyTrafficGen
children=power_state
clk_domain=system.clk_domain
cpu_id=-1
elastic_req=false
eventq_index=0
max_outstanding_reqs=0
numThreads=1
power_model=
power_state=system.generators22.power_state
progress_check=1000000000
sids=
socket_id=0
ssids=
stream_gen=none
system=system
port=system.membus.cpu_side_ports[22]

[system.generators22.power_state]
type=PowerState
clk_gate_bins=20
clk_gate_max=1000000000000
clk_gate_min=1000
default_state=UNDEFINED
eventq_index=0
leaders=
possible_states=

[system.generators23]
type=PyTrafficGen
children=power_state
clk_domain=system.clk_domain
cpu_id=-1
elastic_req=false
eventq_index=0
max_outstanding_reqs=0
numThreads=1
power_model=
power_state=system.generators23.power_state
progress_check=1000000000
sids=
socket_id=0
ssids=
stream_gen=none
system=system
port=system.membus.cpu_side_ports[23]

[system.generators23.power_state]
type=PowerState
clk_gate_bins=20
clk_gate_max=1000000000000
clk_gate_min=1000
default_state=UNDEFINED
eventq_index=0
leaders=
possible_states=

[system.generators24]
type=PyTrafficGen
children=power_state
clk_domain=system.clk_domain
cpu_id=-1
elastic_req=false
eventq_index=0
max_outstanding_reqs=0
numThreads=1
power_model=
power_state=system.generators24.power_state
progress_check=1000000000
sids=
socket_id=0
ssids=
stream_gen=none
system=system
port=system.membus.cpu_side_ports[24]

[system.generators24.power_state]
type=PowerState
clk_gate_bins=20
clk_gate_max=1000000000000
clk_gate_min=1000
default_state=UNDEFINED
eventq_index=0
leaders=
possible_states=

[system.generators25]
type=PyTrafficGen
children=power_state
clk_domain=system.clk_domain
cpu_id=-1
elastic_req=false
eventq_index=0
max_outstanding_reqs=0
numThreads=1
power_model=
power_state=system.generators25.power_state
progress_check=1000000000
sids=
socket_id=0
ssids=
stream_gen=none
system=system
port=system.membus.cpu_side_ports[25]

[system.generators25.power_state]
type=PowerState
clk_gate_bins=20
clk_gate_max=1000000000000
clk_gate_min=1000
default_state=UNDEFINED
eventq_index=0
leaders=
possible_states=

[system.generators26]
type=PyTrafficGen
children=power_state
clk_domain=system.clk_domain
cpu_id=-1
elastic_req=false
eventq_index=0
max_outstanding_reqs=0
numThreads=1
power_model=
power_state=system.generators26.power_state
progress_check=1000000000
sids=
socket_id=0
ssids=
stream_gen=none
system=system
port=system.membus.cpu_side_ports[26]

[system.generators26.power_state]
type=PowerState
clk_gate_bins=20
clk_gate_max=1000000000000
clk_gate_min=1000
default_state=UNDEFINED
eventq_index=0
leaders=
possible_states=

[system.generators27]
type=PyTrafficGen
children=power_state
clk_domain=system.clk_domain
cpu_id=-1
elastic_req=false
eventq_index=0
max_outstanding_reqs=0
numThreads=1
power_model=
power_state=system.generators27.power_state
progress_check=1000000000
sids=
socket_id=0
ssids=
stream_gen=none
system=system
port=system.membus.cpu_side_ports[27]

[system.generators27.power_state]
type=PowerState
clk_gate_bins=20
clk_gate_max=1000000000000
clk_gate_min=1000
default_state=UNDEFINED
eventq_index=0
leaders=
possible_states=

[system.generators28]
type=PyTrafficGen
children=power_state
clk_domain=system.clk_domain
cpu_id=-1
elastic_req=false
eventq_index=0
max_outstanding_reqs=0
numThreads=1
power_model=
power_state=system.generators28.power_state
progress_check=1000000000
sids=
socket_id=0
ssids=
stream_gen=none
system=system
port=system.membus.cpu_side_ports[28]

[system.generators28.power_state]
type=PowerState
clk_gate_bins=20
clk_gate_max=1000000000000
clk_gate_min=1000
default_state=UNDEFINED
eventq_index=0
leaders=
possible_states=

[system.generators29]
type=PyTrafficGen
children=power_state
clk_domain=system.clk_domain
cpu_id=-1
elastic_req=false
eventq_index=0
max_outstanding_reqs=0
numThreads=1
power_model=
power_state=system.generators29.power_state
progress_check=1000000000
sids=
socket_id=0
ssids=
stream_gen=none
system=system
port=system.membus.cpu_side_ports[29]

[system.generators29.power_state]
type=PowerState
clk_gate_bins=20
clk_gate_max=1000000000000
clk_gate_min=1000
default_state=UNDEFINED
eventq_index=0
leaders=
possible_states=

[system.generators30]
type=PyTrafficGen
children=power_state
clk_domain=system.clk_domain
cpu_id=-1
elastic_req=false
eventq_index=0
max_outstanding_reqs=0
numThreads=1
power_model=
power_state=system.generators30.power_state
progress_check=1000000000
sids=
socket_id=0
ssids=
stream_gen=none
system=system
port=system.membus.cpu_side_ports[30]

[system.generators30.power_state]
type=PowerState
clk_gate_bins=20
clk_gate_max=1000000000000
clk_gate_min=1000
default_state=UNDEFINED
eventq_index=0
leaders=
possible_states=

[system.generators31]
type=PyTrafficGen
children=power_state
clk_domain=system.clk_domain
cpu_id=-1
elastic_req=false
eventq_index=0
max_outstanding_reqs=0
numThreads=1
power_model=
power_state=system.generators31.power_state
progress_check=1000000000
sids=
socket_id=0
ssids=
stream_gen=none
system=system
port=system.membus.cpu_side_ports[31]

[system.generators31.power_state]
type=PowerState
clk_gate_bins=20
clk_gate_max=1000000000000
clk_gate_min=1000
default_state=UNDEFINED
eventq_index=0
leaders=
possible_states=

[system.generators32]
type=PyTrafficGen
children=power_state
clk_domain=system.clk_domain
cpu_id=-1
elastic_req=false
eventq_index=0
max_outstanding_reqs=0
numThreads=1
power_model=
power_state=system.generators32.power_state
progress_check=1000000000
sids=
socket_id=0
ssids=
stream_gen=none
system=system
port=system.membus.cpu_side_ports[32]

[system.generators32.power_state]
type=PowerState
clk_gate_bins=20
clk_gate_max=1000000000000
clk_gate_min=1000
default_state=UNDEFINED
eventq_index=0
leaders=
possible_states=

[system.generators33]
type=PyTrafficGen
children=power_state
clk_domain=system.clk_domain
cpu_id=-1
elastic_req=false
eventq_index=0
max_outstanding_reqs=0
numThreads=1
power_model=
power_state=system.generators33.power_state
progress_check=1000000000
sids=
socket_id=0
ssids=
stream_gen=none
system=system
port=system.membus.cpu_side_ports[33]

[system.generators33.power_state]
type=PowerState
clk_gate_bins=20
clk_gate_max=1000000000000
clk_gate_min=1000
default_state=UNDEFINED
eventq_index=0
leaders=
possible_states=

[system.generators34]
type=PyTrafficGen
children=power_state
clk_domain=system.clk_domain
cpu_id=-1
elastic_req=false
eventq_index=0
max_outstanding_reqs=0
numThreads=1
power_model=
power_state=system.generators34.power_state
progress_check=1000000000
sids=
socket_id=0
ssids=
stream_gen=none
system=system
port=system.membus.cpu_side_ports[34]

[system.generators34.power_state]
type=PowerState
clk_gate_bins=20
clk_gate_max=1000000000000
clk_gate_min=1000
default_state=UNDEFINED
eventq_index=0
leaders=
possible_states=

[system.generators35]
type=PyTrafficGen
children=power_state
clk_domain=system.clk_domain
cpu_id=-1
elastic_req=false
eventq_index=0
max_outstanding_reqs=0
numThreads=1
power_model=
power_state=system.generators35.power_state
progress_check=1000000000
sids=
socket_id=0
ssids=
stream_gen=none
system=system
port=system.membus.cpu_side_ports[35]

[system.generators35.power_state]
type=PowerState
clk_gate_bins=20
clk_gate_max=1000000000000
clk_gate_min=1000
default_state=UNDEFINED
eventq_index=0
leaders=
possible_states=

[system.generators36]
type=PyTrafficGen
children=power_state
clk_domain=system.clk_domain
cpu_id=-1
elastic_req=false
eventq_index=0
max_outstanding_reqs=0
numThreads=1
power_model=
power_state=system.generators36.power_state
progress_check=1000000000
sids=
socket_id=0
ssids=
stream_gen=none
system=system
port=system.membus.cpu_side_ports[36]

[system.generators36.power_state]
type=PowerState
clk_gate_bins=20
clk_gate_max=1000000000000
clk_gate_min=1000
default_state=UNDEFINED
eventq_index=0
leaders=
possible_states=

[system.generators37]
type=PyTrafficGen
children=power_state
clk_domain=system.clk_domain
cpu_id=-1
elastic_req=false
eventq_index=0
max_outstanding_reqs=0
numThreads=1
power_model=
power_state=system.generators37.power_state
progress_check=1000000000
sids=
socket_id=0
ssids=
stream_gen=none
system=system
port=system.membus.cpu_side_ports[37]

[system.generators37.power_state]
type=PowerState
clk_gate_bins=20
clk_gate_max=1000000000000
clk_gate_min=1000
default_state=UNDEFINED
eventq_index=0
leaders=
possible_states=

[system.generators38]
type=PyTrafficGen
children=power_state
clk_domain=system.clk_domain
cpu_id=-1
elastic_req=false
eventq_index=0
max_outstanding_reqs=0
numThreads=1
power_model=
power_state=system.generators38.power_state
progress_check=1000000000
sids=
socket_id=0
ssids=
stream_gen=none
system=system
port=system.membus.cpu_side_ports[38]

[system.generators38.power_state]
type=PowerState
clk_gate_bins=20
clk_gate_max=1000000000000
clk_gate_min=1000
default_state=UNDEFINED
eventq_index=0
leaders=
possible_states=

[system.generators39]
type=PyTrafficGen
children=power_state
clk_domain=system.clk_domain
cpu_id=-1
elastic_req=false
eventq_index=0
max_outstanding_reqs=0
numThreads=1
power_model=
power_state=system.generators39.power_state
progress_check=1000000000
sids=
socket_id=0
ssids=
stream_gen=none
system=system
port=system.membus.cpu_side_ports[39]

[system.generators39.power_state]
type=PowerState
clk_gate_bins=20
clk_gate_max=1000000000000
clk_gate_min=1000
default_state=UNDEFINED
eventq_index=0
leaders=
possible_states=

[system.generators40]
type=PyTrafficGen
children=power_state
clk_domain=system.clk_domain
cpu_id=-1
elastic_req=false
eventq_index=0
max_outstanding_reqs=0
numThreads=1
power_model=
power_state=system.generators40.power_state
progress_check=1000000000
sids=
socket_id=0
ssids=
stream_gen=none
system=system
port=system.membus.cpu_side_ports[40]

[system.generators40.power_state]
type=PowerState
clk_gate_bins=20
clk_gate_max=1000000000000
clk_gate_min=1000
default_state=UNDEFINED
eventq_index=0
leaders=
possible_states=

[system.generators41]
type=PyTrafficGen
children=power_state
clk_domain=system.clk_domain
cpu_id=-1
elastic_req=false
eventq_index=0
max_outstanding_reqs=0
numThreads=1
power_model=
power_state=system.generators41.power_state
progress_check=1000000000
sids=
socket_id=0
ssids=
stream_gen=none
system=system
port=system.membus.cpu_side_ports[41]

[system.generators41.power_state]
type=PowerState
clk_gate_bins=20
clk_gate_max=1000000000000
clk_gate_min=1000
default_state=UNDEFINED
eventq_index=0
leaders=
possible_states=

[system.generators42]
type=PyTrafficGen
children=power_state
clk_domain=system.clk_domain
cpu_id=-1
elastic_req=false
eventq_index=0
max_outstanding_reqs=0
numThreads=1
power_model=
power_state=system.generators42.power_state
progress_check=1000000000
sids=
socket_id=0
ssids=
stream_gen=none
system=system
port=system.membus.cpu_side_ports[42]

[system.generators42.power_state]
type=PowerState
clk_gate_bins=20
clk_gate_max=1000000000000
clk_gate_min=1000
default_state=UNDEFINED
eventq_index=0
leaders=
possible_states=

[system.generators43]
type=PyTrafficGen
children=power_state
clk_domain=system.clk_domain
cpu_id=-1
elastic_req=false
eventq_index=0
max_outstanding_reqs=0
numThreads=1
power_model=
power_state=system.generators43.power_state
progress_check=1000000000
sids=
socket_id=0
ssids=
stream_gen=none
system=system
port=system.membus.cpu_side_ports[43]

[system.generators43.power_state]
type=PowerState
clk_gate_bins=20
clk_gate_max=1000000000000
clk_gate_min=1000
default_state=UNDEFINED
eventq_index=0
leaders=
possible_states=

[system.generators44]
type=PyTrafficGen
children=power_state
clk_domain=system.clk_domain
cpu_id=-1
elastic_req=false
eventq_index=0
max_outstanding_reqs=0
numThreads=1
power_model=
power_state=system.generators44.power_state
progress_check=1000000000
sids=
socket_id=0
ssids=
stream_gen=none
system=system
port=system.membus.cpu_side_ports[44]

[system.generators44.power_state]
type=PowerState
clk_gate_bins=20
clk_gate_max=1000000000000
clk_gate_min=1000
default_state=UNDEFINED
eventq_index=0
leaders=
possible_states=

[system.generators45]
type=PyTrafficGen
children=power_state
clk_domain=system.clk_domain
cpu_id=-1
elastic_req=false
eventq_index=0
max_outstanding_reqs=0
numThreads=1
power_model=
power_state=system.generators45.power_state
progress_check=1000000000
sids=
socket_id=0
ssids=
stream_gen=none
system=system
port=system.membus.cpu_side_ports[45]

[system.generators45.power_state]
type=PowerState
clk_gate_bins=20
clk_gate_max=1000000000000
clk_gate_min=1000
default_state=UNDEFINED
eventq_index=0
leaders=
possible_states=

[system.generators46]
type=PyTrafficGen
children=power_state
clk_domain=system.clk_domain
cpu_id=-1
elastic_req=false
eventq_index=0
max_outstanding_reqs=0
numThreads=1
power_model=
power_state=system.generators46.power_state
progress_check=1000000000
sids=
socket_id=0
ssids=
stream_gen=none
system=system
port=system.membus.cpu_side_ports[46]

[system.generators46.power_state]
type=PowerState
clk_gate_bins=20
clk_gate_max=1000000000000
clk_gate_min=1000
default_state=UNDEFINED
eventq_index=0
leaders=
possible_states=

[system.generators47]
type=PyTrafficGen
children=power_state
clk_domain=system.clk_domain
cpu_id=-1
elastic_req=false
eventq_index=0
max_outstanding_reqs=0
numThreads=1
power_model=
power_state=system.generators47.power_state
progress_check=1000000000
sids=
socket_id=0
ssids=
stream_gen=none
system=system
port=system.membus.cpu_side_ports[47]

[system.generators47.power_state]
type=PowerState
clk_gate_bins=20
clk_gate_max=1000000000000
clk_gate_min=1000
default_state=UNDEFINED
eventq_index=0
leaders=
possible_states=

[system.generators48]
type=PyTrafficGen
children=power_state
clk_domain=system.clk_domain
cpu_id=-1
elastic_req=false
eventq_index=0
max_outstanding_reqs=0
numThreads=1
power_model=
power_state=system.generators48.power_state
progress_check=1000000000
sids=
socket_id=0
ssids=
stream_gen=none
system=system
port=system.membus.cpu_side_ports[48]

[system.generators48.power_state]
type=PowerState
clk_gate_bins=20
clk_gate_max=1000000000000
clk_gate_min=1000
default_state=UNDEFINED
eventq_index=0
leaders=
possible_states=

[system.generators49]
type=PyTrafficGen
children=power_state
clk_domain=system.clk_domain
cpu_id=-1
elastic_req=false
eventq_index=0
max_outstanding_reqs=0
numThreads=1
power_model=
power_state=system.generators49.power_state
progress_check=1000000000
sids=