[root]
type=Root
children=system
eventq_index=0
full_system=false
sim_quantum=0
time_sync_enable=false
time_sync_period=100000000000
time_sync_spin_threshold=100000000

[system]
type=System
children=clk_domain dvfs_handler far_mem_ctrl generators00 generators01 generators02 generators03 generators04 generators05 generators06 generators07 generators08 generators09 generators10 generators11 generators12 generators13 generators14 generators15 loc_mem_ctrlrs000 loc_mem_ctrlrs001 loc_mem_ctrlrs002 loc_mem_ctrlrs003 loc_mem_ctrlrs004 loc_mem_ctrlrs005 loc_mem_ctrlrs006 loc_mem_ctrlrs007 loc_mem_ctrlrs008 loc_mem_ctrlrs009 loc_mem_ctrlrs010 loc_mem_ctrlrs011 loc_mem_ctrlrs012 loc_mem_ctrlrs013 loc_mem_ctrlrs014 loc_mem_ctrlrs015 loc_mem_ctrlrs016 loc_mem_ctrlrs017 loc_mem_ctrlrs018 loc_mem_ctrlrs019 loc_mem_ctrlrs020 loc_mem_ctrlrs021 loc_mem_ctrlrs022 loc_mem_ctrlrs023 loc_mem_ctrlrs024 loc_mem_ctrlrs025 loc_mem_ctrlrs026 loc_mem_ctrlrs027 loc_mem_ctrlrs028 loc_mem_ctrlrs029 loc_mem_ctrlrs030 loc_mem_ctrlrs031 loc_mem_ctrlrs032 loc_mem_ctrlrs033 loc_mem_ctrlrs034 loc_mem_ctrlrs035 loc_mem_ctrlrs036 loc_mem_ctrlrs037 loc_mem_ctrlrs038 loc_mem_ctrlrs039 loc_mem_ctrlrs040 loc_mem_ctrlrs041 loc_mem_ctrlrs042 loc_mem_ctrlrs043 loc_mem_ctrlrs044 loc_mem_ctrlrs045 loc_mem_ctrlrs046 loc_mem_ctrlrs047 loc_mem_ctrlrs048 loc_mem_ctrlrs049 loc_mem_ctrlrs050 loc_mem_ctrlrs051 loc_mem_ctrlrs052 loc_mem_ctrlrs053 loc_mem_ctrlrs054 loc_mem_ctrlrs055 loc_mem_ctrlrs056 loc_mem_ctrlrs057 loc_mem_ctrlrs058 loc_mem_ctrlrs059 loc_mem_ctrlrs060 loc_mem_ctrlrs061 loc_mem_ctrlrs062 loc_mem_ctrlrs063 loc_mem_ctrlrs064 loc_mem_ctrlrs065 loc_mem_ctrlrs066 loc_mem_ctrlrs067 loc_mem_ctrlrs068 loc_mem_ctrlrs069 loc_mem_ctrlrs070 loc_mem_ctrlrs071 loc_mem_ctrlrs072 loc_mem_ctrlrs073 loc_mem_ctrlrs074 loc_mem_ctrlrs075 loc_mem_ctrlrs076 loc_mem_ctrlrs077 loc_mem_ctrlrs078 loc_mem_ctrlrs079 loc_mem_ctrlrs080 loc_mem_ctrlrs081 loc_mem_ctrlrs082 loc_mem_ctrlrs083 loc_mem_ctrlrs084 loc_mem_ctrlrs085 loc_mem_ctrlrs086 loc_mem_ctrlrs087 loc_mem_ctrlrs088 loc_mem_ctrlrs089 loc_mem_ctrlrs090 loc_mem_ctrlrs091 loc_mem_ctrlrs092 loc_mem_ctrlrs093 loc_mem_ctrlrs094 loc_mem_ctrlrs095 loc_mem_ctrlrs096 loc_mem_ctrlrs097 loc_mem_ctrlrs098 loc_mem_ctrlrs099 loc_mem_ctrlrs100 loc_mem_ctrlrs101 loc_mem_ctrlrs102 loc_mem_ctrlrs103 loc_mem_ctrlrs104 loc_mem_ctrlrs105 loc_mem_ctrlrs106 loc_mem_ctrlrs107 loc_mem_ctrlrs108 loc_mem_ctrlrs109 loc_mem_ctrlrs110 loc_mem_ctrlrs111 loc_mem_ctrlrs112 loc_mem_ctrlrs113 loc_mem_ctrlrs114 loc_mem_ctrlrs115 loc_mem_ctrlrs116 loc_mem_ctrlrs117 loc_mem_ctrlrs118 loc_mem_ctrlrs119 loc_mem_ctrlrs120 loc_mem_ctrlrs121 loc_mem_ctrlrs122 loc_mem_ctrlrs123 loc_mem_ctrlrs124 loc_mem_ctrlrs125 loc_mem_ctrlrs126 loc_mem_ctrlrs127 loc_mem_ctrlrs128 loc_mem_ctrlrs129 loc_mem_ctrlrs130 loc_mem_ctrlrs131 loc_mem_ctrlrs132 loc_mem_ctrlrs133 loc_mem_ctrlrs134 loc_mem_ctrlrs135 loc_mem_ctrlrs136 loc_mem_ctrlrs137 loc_mem_ctrlrs138 loc_mem_ctrlrs139 loc_mem_ctrlrs140 loc_mem_ctrlrs141 loc_mem_ctrlrs142 loc_mem_ctrlrs143 loc_mem_ctrlrs144 loc_mem_ctrlrs145 loc_mem_ctrlrs146 loc_mem_ctrlrs147 loc_mem_ctrlrs148 loc_mem_ctrlrs149 loc_mem_ctrlrs150 loc_mem_ctrlrs151 loc_mem_ctrlrs152 loc_mem_ctrlrs153 loc_mem_ctrlrs154 loc_mem_ctrlrs155 loc_mem_ctrlrs156 loc_mem_ctrlrs157 loc_mem_ctrlrs158 loc_mem_ctrlrs159 loc_mem_ctrlrs160 loc_mem_ctrlrs161 loc_mem_ctrlrs162 loc_mem_ctrlrs163 loc_mem_ctrlrs164 loc_mem_ctrlrs165 loc_mem_ctrlrs166 loc_mem_ctrlrs167 loc_mem_ctrlrs168 loc_mem_ctrlrs169 loc_mem_ctrlrs170 loc_mem_ctrlrs171 loc_mem_ctrlrs172 loc_mem_ctrlrs173 loc_mem_ctrlrs174 loc_mem_ctrlrs175 loc_mem_ctrlrs176 loc_mem_ctrlrs177 loc_mem_ctrlrs178 loc_mem_ctrlrs179 loc_mem_ctrlrs180 loc_mem_ctrlrs181 loc_mem_ctrlrs182 loc_mem_ctrlrs183 loc_mem_ctrlrs184 loc_mem_ctrlrs185 loc_mem_ctrlrs186 loc_mem_ctrlrs187 loc_mem_ctrlrs188 loc_mem_ctrlrs189 loc_mem_ctrlrs190 loc_mem_ctrlrs191 loc_mem_ctrlrs192 loc_mem_ctrlrs193 loc_mem_ctrlrs194 loc_mem_ctrlrs195 loc_mem_ctrlrs196 loc_mem_ctrlrs197 loc_mem_ctrlrs198 loc_mem_ctrlrs199 loc_mem_ctrlrs200 loc_mem_ctrlrs201 loc_mem_ctrlrs202 loc_mem_ctrlrs203 loc_mem_ctrlrs204 loc_mem_ctrlrs205 loc_mem_ctrlrs206 loc_mem_ctrlrs207 loc_mem_ctrlrs208 loc_mem_ctrlrs209 loc_mem_ctrlrs210 loc_mem_ctrlrs211 loc_mem_ctrlrs212 loc_mem_ctrlrs213 loc_mem_ctrlrs214 loc_mem_ctrlrs215 loc_mem_ctrlrs216 loc_mem_ctrlrs217 loc_mem_ctrlrs218 loc_mem_ctrlrs219 loc_mem_ctrlrs220 loc_mem_ctrlrs221 loc_mem_ctrlrs222 loc_mem_ctrlrs223 loc_mem_ctrlrs224 loc_mem_ctrlrs225 loc_mem_ctrlrs226 loc_mem_ctrlrs227 loc_mem_ctrlrs228 loc_mem_ctrlrs229 loc_mem_ctrlrs230 loc_mem_ctrlrs231 loc_mem_ctrlrs232 loc_mem_ctrlrs233 loc_mem_ctrlrs234 loc_mem_ctrlrs235 loc_mem_ctrlrs236 loc_mem_ctrlrs237 loc_mem_ctrlrs238 loc_mem_ctrlrs239 loc_mem_ctrlrs240 loc_mem_ctrlrs241 loc_mem_ctrlrs242 loc_mem_ctrlrs243 loc_mem_ctrlrs244 loc_mem_ctrlrs245 loc_mem_ctrlrs246 loc_mem_ctrlrs247 loc_mem_ctrlrs248 loc_mem_ctrlrs249 loc_mem_ctrlrs250 loc_mem_ctrlrs251 loc_mem_ctrlrs252 loc_mem_ctrlrs253 loc_mem_ctrlrs254 loc_mem_ctrlrs255 mem_ctrl membus membusPolManFarMem membusPolManLocMem scheds000 scheds001 scheds002 scheds003 scheds004 scheds005 scheds006 scheds007 scheds008 scheds009 scheds010 scheds011 scheds012 scheds013 scheds014 scheds015 scheds016 scheds017 scheds018 scheds019 scheds020 scheds021 scheds022 scheds023 scheds024 scheds025 scheds026 scheds027 scheds028 scheds029 scheds030 scheds031 scheds032 scheds033 scheds034 scheds035 scheds036 scheds037 scheds038 scheds039 scheds040 scheds041 scheds042 scheds043 scheds044 scheds045 scheds046 scheds047 scheds048 scheds049 scheds050 scheds051 scheds052 scheds053 scheds054 scheds055 scheds056 scheds057 scheds058 scheds059 scheds060 scheds061 scheds062 scheds063 scheds064 scheds065 scheds066 scheds067 scheds068 scheds069 scheds070 scheds071 scheds072 scheds073 scheds074 scheds075 scheds076 scheds077 scheds078 scheds079 scheds080 scheds081 scheds082 scheds083 scheds084 scheds085 scheds086 scheds087 scheds088 scheds089 scheds090 scheds091 scheds092 scheds093 scheds094 scheds095 scheds096 scheds097 scheds098 scheds099 scheds100 scheds101 scheds102 scheds103 scheds104 scheds105 scheds106 scheds107 scheds108 scheds109 scheds110 scheds111 scheds112 scheds113 scheds114 scheds115 scheds116 scheds117 scheds118 scheds119 scheds120 scheds121 scheds122 scheds123 scheds124 scheds125 scheds126 scheds127 scheds128 scheds129 scheds130 scheds131 scheds132 scheds133 scheds134 scheds135 scheds136 scheds137 scheds138 scheds139 scheds140 scheds141 scheds142 scheds143 scheds144 scheds145 scheds146 scheds147 scheds148 scheds149 scheds150 scheds151 scheds152 scheds153 scheds154 scheds155 scheds156 scheds157 scheds158 scheds159 scheds160 scheds161 scheds162 scheds163 scheds164 scheds165 scheds166 scheds167 scheds168 scheds169 scheds170 scheds171 scheds172 scheds173 scheds174 scheds175 scheds176 scheds177 scheds178 scheds179 scheds180 scheds181 scheds182 scheds183 scheds184 scheds185 scheds186 scheds187 scheds188 scheds189 scheds190 scheds191 scheds192 scheds193 scheds194 scheds195 scheds196 scheds197 scheds198 scheds199 scheds200 scheds201 scheds202 scheds203 scheds204 scheds205 scheds206 scheds207 scheds208 scheds209 scheds210 scheds211 scheds212 scheds213 scheds214 scheds215 scheds216 scheds217 scheds218 scheds219 scheds220 scheds221 scheds222 scheds223 scheds224 scheds225 scheds226 scheds227 scheds228 scheds229 scheds230 scheds231 scheds232 scheds233 scheds234 scheds235 scheds236 scheds237 scheds238 scheds239 scheds240 scheds241 scheds242 scheds243 scheds244 scheds245 scheds246 scheds247 scheds248 scheds249 scheds250 scheds251 scheds252 scheds253 scheds254 scheds255 workload
auto_unlink_shared_backstore=false
cache_line_size=64
eventq_index=0
exit_on_work_items=false
init_param=0
m5ops_base=0
mem_mode=timing
mem_ranges=
memories=system.far_mem_ctrl.dram system.loc_mem_ctrlrs000.dram system.loc_mem_ctrlrs001.dram system.loc_mem_ctrlrs002.dram system.loc_mem_ctrlrs003.dram system.loc_mem_ctrlrs004.dram system.loc_mem_ctrlrs005.dram system.loc_mem_ctrlrs006.dram system.loc_mem_ctrlrs007.dram system.loc_mem_ctrlrs008.dram system.loc_mem_ctrlrs009.dram system.loc_mem_ctrlrs010.dram system.loc_mem_ctrlrs011.dram system.loc_mem_ctrlrs012.dram system.loc_mem_ctrlrs013.dram system.loc_mem_ctrlrs014.dram system.loc_mem_ctrlrs015.dram system.loc_mem_ctrlrs016.dram system.loc_mem_ctrlrs017.dram system.loc_mem_ctrlrs018.dram system.loc_mem_ctrlrs019.dram system.loc_mem_ctrlrs020.dram system.loc_mem_ctrlrs021.dram system.loc_mem_ctrlrs022.dram system.loc_mem_ctrlrs023.dram system.loc_mem_ctrlrs024.dram system.loc_mem_ctrlrs025.dram system.loc_mem_ctrlrs026.dram system.loc_mem_ctrlrs027.dram system.loc_mem_ctrlrs028.dram system.loc_mem_ctrlrs029.dram system.loc_mem_ctrlrs030.dram system.loc_mem_ctrlrs031.dram system.loc_mem_ctrlrs032.dram system.loc_mem_ctrlrs033.dram system.loc_mem_ctrlrs034.dram system.loc_mem_ctrlrs035.dram system.loc_mem_ctrlrs036.dram system.loc_mem_ctrlrs037.dram system.loc_mem_ctrlrs038.dram system.loc_mem_ctrlrs039.dram system.loc_mem_ctrlrs040.dram system.loc_mem_ctrlrs041.dram system.loc_mem_ctrlrs042.dram system.loc_mem_ctrlrs043.dram system.loc_mem_ctrlrs044.dram system.loc_mem_ctrlrs045.dram system.loc_mem_ctrlrs046.dram system.loc_mem_ctrlrs047.dram system.loc_mem_ctrlrs048.dram system.loc_mem_ctrlrs049.dram system.loc_mem_ctrlrs050.dram system.loc_mem_ctrlrs051.dram system.loc_mem_ctrlrs052.dram system.loc_mem_ctrlrs053.dram system.loc_mem_ctrlrs054.dram system.loc_mem_ctrlrs055.dram system.loc_mem_ctrlrs056.dram system.loc_mem_ctrlrs057.dram system.loc_mem_ctrlrs058.dram system.loc_mem_ctrlrs059.dram system.loc_mem_ctrlrs060.dram system.loc_mem_ctrlrs061.dram system.loc_mem_ctrlrs062.dram system.loc_mem_ctrlrs063.dram system.loc_mem_ctrlrs064.dram system.loc_mem_ctrlrs065.dram system.loc_mem_ctrlrs066.dram system.loc_mem_ctrlrs067.dram system.loc_mem_ctrlrs068.dram system.loc_mem_ctrlrs069.dram system.loc_mem_ctrlrs070.dram system.loc_mem_ctrlrs071.dram system.loc_mem_ctrlrs072.dram system.loc_mem_ctrlrs073.dram system.loc_mem_ctrlrs074.dram system.loc_mem_ctrlrs075.dram system.loc_mem_ctrlrs076.dram system.loc_mem_ctrlrs077.dram system.loc_mem_ctrlrs078.dram system.loc_mem_ctrlrs079.dram system.loc_mem_ctrlrs080.dram system.loc_mem_ctrlrs081.dram system.loc_mem_ctrlrs082.dram system.loc_mem_ctrlrs083.dram system.loc_mem_ctrlrs084.dram system.loc_mem_ctrlrs085.dram system.loc_mem_ctrlrs086.dram system.loc_mem_ctrlrs087.dram system.loc_mem_ctrlrs088.dram system.loc_mem_ctrlrs089.dram system.loc_mem_ctrlrs090.dram system.loc_mem_ctrlrs091.dram system.loc_mem_ctrlrs092.dram system.loc_mem_ctrlrs093.dram system.loc_mem_ctrlrs094.dram system.loc_mem_ctrlrs095.dram system.loc_mem_ctrlrs096.dram system.loc_mem_ctrlrs097.dram system.loc_mem_ctrlrs098.dram system.loc_mem_ctrlrs099.dram system.loc_mem_ctrlrs100.dram system.loc_mem_ctrlrs101.dram system.loc_mem_ctrlrs102.dram system.loc_mem_ctrlrs103.dram system.loc_mem_ctrlrs104.dram system.loc_mem_ctrlrs105.dram system.loc_mem_ctrlrs106.dram system.loc_mem_ctrlrs107.dram system.loc_mem_ctrlrs108.dram system.loc_mem_ctrlrs109.dram system.loc_mem_ctrlrs110.dram system.loc_mem_ctrlrs111.dram system.loc_mem_ctrlrs112.dram system.loc_mem_ctrlrs113.dram system.loc_mem_ctrlrs114.dram system.loc_mem_ctrlrs115.dram system.loc_mem_ctrlrs116.dram system.loc_mem_ctrlrs117.dram system.loc_mem_ctrlrs118.dram system.loc_mem_ctrlrs119.dram system.loc_mem_ctrlrs120.dram system.loc_mem_ctrlrs121.dram system.loc_mem_ctrlrs122.dram system.loc_mem_ctrlrs123.dram system.loc_mem_ctrlrs124.dram system.loc_mem_ctrlrs125.dram system.loc_mem_ctrlrs126.dram system.loc_mem_ctrlrs127.dram system.loc_mem_ctrlrs128.dram system.loc_mem_ctrlrs129.dram system.loc_mem_ctrlrs130.dram system.loc_mem_ctrlrs131.dram system.loc_mem_ctrlrs132.dram system.loc_mem_ctrlrs133.dram system.loc_mem_ctrlrs134.dram system.loc_mem_ctrlrs135.dram system.loc_mem_ctrlrs136.dram system.loc_mem_ctrlrs137.dram system.loc_mem_ctrlrs138.dram system.loc_mem_ctrlrs139.dram system.loc_mem_ctrlrs140.dram system.loc_mem_ctrlrs141.dram system.loc_mem_ctrlrs142.dram system.loc_mem_ctrlrs143.dram system.loc_mem_ctrlrs144.dram system.loc_mem_ctrlrs145.dram system.loc_mem_ctrlrs146.dram system.loc_mem_ctrlrs147.dram system.loc_mem_ctrlrs148.dram system.loc_mem_ctrlrs149.dram system.loc_mem_ctrlrs150.dram system.loc_mem_ctrlrs151.dram system.loc_mem_ctrlrs152.dram system.loc_mem_ctrlrs153.dram system.loc_mem_ctrlrs154.dram system.loc_mem_ctrlrs155.dram system.loc_mem_ctrlrs156.dram system.loc_mem_ctrlrs157.dram system.loc_mem_ctrlrs158.dram system.loc_mem_ctrlrs159.dram system.loc_mem_ctrlrs160.dram system.loc_mem_ctrlrs161.dram system.loc_mem_ctrlrs162.dram system.loc_mem_ctrlrs163.dram system.loc_mem_ctrlrs164.dram system.loc_mem_ctrlrs165.dram system.loc_mem_ctrlrs166.dram system.loc_mem_ctrlrs167.dram system.loc_mem_ctrlrs168.dram system.loc_mem_ctrlrs169.dram system.loc_mem_ctrlrs170.dram system.loc_mem_ctrlrs171.dram system.loc_mem_ctrlrs172.dram system.loc_mem_ctrlrs173.dram system.loc_mem_ctrlrs174.dram system.loc_mem_ctrlrs175.dram system.loc_mem_ctrlrs176.dram system.loc_mem_ctrlrs177.dram system.loc_mem_ctrlrs178.dram system.loc_mem_ctrlrs179.dram system.loc_mem_ctrlrs180.dram system.loc_mem_ctrlrs181.dram system.loc_mem_ctrlrs182.dram system.loc_mem_ctrlrs183.dram system.loc_mem_ctrlrs184.dram system.loc_mem_ctrlrs185.dram system.loc_mem_ctrlrs186.dram system.loc_mem_ctrlrs187.dram system.loc_mem_ctrlrs188.dram system.loc_mem_ctrlrs189.dram system.loc_mem_ctrlrs190.dram system.loc_mem_ctrlrs191.dram system.loc_mem_ctrlrs192.dram system.loc_mem_ctrlrs193.dram system.loc_mem_ctrlrs194.dram system.loc_mem_ctrlrs195.dram system.loc_mem_ctrlrs196.dram system.loc_mem_ctrlrs197.dram system.loc_mem_ctrlrs198.dram system.loc_mem_ctrlrs199.dram system.loc_mem_ctrlrs200.dram system.loc_mem_ctrlrs201.dram system.loc_mem_ctrlrs202.dram system.loc_mem_ctrlrs203.dram system.loc_mem_ctrlrs204.dram system.loc_mem_ctrlrs205.dram system.loc_mem_ctrlrs206.dram system.loc_mem_ctrlrs207.dram system.loc_mem_ctrlrs208.dram system.loc_mem_ctrlrs209.dram system.loc_mem_ctrlrs210.dram system.loc_mem_ctrlrs211.dram system.loc_mem_ctrlrs212.dram system.loc_mem_ctrlrs213.dram system.loc_mem_ctrlrs214.dram system.loc_mem_ctrlrs215.dram system.loc_mem_ctrlrs216.dram system.loc_mem_ctrlrs217.dram system.loc_mem_ctrlrs218.dram system.loc_mem_ctrlrs219.dram system.loc_mem_ctrlrs220.dram system.loc_mem_ctrlrs221.dram system.loc_mem_ctrlrs222.dram system.loc_mem_ctrlrs223.dram system.loc_mem_ctrlrs224.dram system.loc_mem_ctrlrs225.dram system.loc_mem_ctrlrs226.dram system.loc_mem_ctrlrs227.dram system.loc_mem_ctrlrs228.dram system.loc_mem_ctrlrs229.dram system.loc_mem_ctrlrs230.dram system.loc_mem_ctrlrs231.dram system.loc_mem_ctrlrs232.dram system.loc_mem_ctrlrs233.dram system.loc_mem_ctrlrs234.dram system.loc_mem_ctrlrs235.dram system.loc_mem_ctrlrs236.dram system.loc_mem_ctrlrs237.dram system.loc_mem_ctrlrs238.dram system.loc_mem_ctrlrs239.dram system.loc_mem_ctrlrs240.dram system.loc_mem_ctrlrs241.dram system.loc_mem_ctrlrs242.dram system.loc_mem_ctrlrs243.dram system.loc_mem_ctrlrs244.dram system.loc_mem_ctrlrs245.dram system.loc_mem_ctrlrs246.dram system.loc_mem_ctrlrs247.dram system.loc_mem_ctrlrs248.dram system.loc_mem_ctrlrs249.dram system.loc_mem_ctrlrs250.dram system.loc_mem_ctrlrs251.dram system.loc_mem_ctrlrs252.dram system.loc_mem_ctrlrs253.dram system.loc_mem_ctrlrs254.dram system.loc_mem_ctrlrs255.dram system.mem_ctrl
mmap_using_noreserve=false
multi_thread=false
num_work_ids=16
readfile=
redirect_paths=
shadow_rom_ranges=
shared_backstore=
symbolfile=
thermal_components=
thermal_model=Null
work_begin_ckpt_count=0
work_begin_cpu_id_exit=-1
work_begin_exit_count=0
work_cpus_ckpt_count=0
work_end_ckpt_count=0
work_end_exit_count=0
work_item_id=-1
workload=system.workload

[system.clk_domain]
type=SrcClockDomain
children=voltage_domain
clock=200
domain_id=-1
eventq_index=0
init_perf_level=0
voltage_domain=system.clk_domain.voltage_domain

[system.clk_domain.voltage_domain]
type=VoltageDomain
eventq_index=0
voltage=1.0

[system.dvfs_handler]
type=DVFSHandler
domains=
enable=false
eventq_index=0
sys_clk_domain=system.clk_domain
transition_latency=100000000

[system.far_mem_ctrl]
type=MemCtrl
children=dram power_state
clk_domain=system.clk_domain
command_window=10000
disable_sanity_check=false
dram=system.far_mem_ctrl.dram
eventq_index=0
mem_sched_policy=frfcfs
min_reads_per_switch=16
min_writes_per_switch=16
power_model=
power_state=system.far_mem_ctrl.power_state
qos_policy=Null
qos_priorities=1
qos_priority_escalation=false
qos_q_policy=fifo
qos_requestors=               
qos_syncro_scheduler=false
qos_turnaround_policy=Null
static_backend_latency=10000
static_frontend_latency=10000
system=system
write_high_thresh_perc=85
write_low_thresh_perc=50
port=system.membusPolManFarMem.mem_side_ports[0]

[system.far_mem_ctrl.dram]
type=NVMInterface
children=power_state
addr_mapping=RoRaBaCoCh
banks_per_rank=16
burst_length=8
clk_domain=system.clk_domain
conf_table_reported=true
device_bus_width=64
device_rowbuffer_size=256
device_size=549755813888
devices_per_rank=1
eventq_index=0
image_file=
in_addr_map=false
kvm_map=true
max_pending_reads=64
max_pending_writes=128
null=true
power_model=
power_state=system.far_mem_ctrl.dram.power_state
range=0:3221225472
ranks_per_channel=1
read_buffer_size=128
tBURST=3332
tCK=833
tCS=1666
tREAD=150000
tRTW=1666
tSEND=14160
tWRITE=500000
tWTR=1666
two_cycle_rdwr=true
write_buffer_size=128

[system.far_mem_ctrl.dram.power_state]
type=PowerState
clk_gate_bins=20
clk_gate_max=1000000000000
clk_gate_min=1000
default_state=UNDEFINED
eventq_index=0
leaders=
possible_states=

[system.far_mem_ctrl.power_state]
type=PowerState
clk_gate_bins=20
clk_gate_max=1000000000000
clk_gate_min=1000
default_state=UNDEFINED
eventq_index=0
leaders=
possible_states=

[system.generators00]
type=PyTrafficGen
children=power_state
clk_domain=system.clk_domain
cpu_id=-1
elastic_req=false
eventq_index=0
max_outstanding_reqs=0
numThreads=1
power_model=
power_state=system.generators00.power_state
progress_check=1000000000
sids=
socket_id=0
ssids=
stream_gen=none
system=system
port=system.membus.cpu_side_ports[0]

[system.generators00.power_state]
type=PowerState
clk_gate_bins=20
clk_gate_max=1000000000000
clk_gate_min=1000
default_state=UNDEFINED
eventq_index=0
leaders=
possible_states=

[system.generators01]
type=PyTrafficGen
children=power_state
clk_domain=system.clk_domain
cpu_id=-1
elastic_req=false
eventq_index=0
max_outstanding_reqs=0
numThreads=1
power_model=
power_state=system.generators01.power_state
progress_check=1000000000
sids=
socket_id=0
ssids=
stream_gen=none
system=system
port=system.membus.cpu_side_ports[1]

[system.generators01.power_state]
type=PowerState
clk_gate_bins=20
clk_gate_max=1000000000000
clk_gate_min=1000
default_state=UNDEFINED
eventq_index=0
leaders=
possible_states=

[system.generators02]
type=PyTrafficGen
children=power_state
clk_domain=system.clk_domain
cpu_id=-1
elastic_req=false
eventq_index=0
max_outstanding_reqs=0
numThreads=1
power_model=
power_state=system.generators02.power_state
progress_check=1000000000
sids=
socket_id=0
ssids=
stream_gen=none
system=system
port=system.membus.cpu_side_ports[2]

[system.generators02.power_state]
type=PowerState
clk_gate_bins=20
clk_gate_max=1000000000000
clk_gate_min=1000
default_state=UNDEFINED
eventq_index=0
leaders=
possible_states=

[system.generators03]
type=PyTrafficGen
children=power_state
clk_domain=system.clk_domain
cpu_id=-1
elastic_req=false
eventq_index=0
max_outstanding_reqs=0
numThreads=1
power_model=
power_state=system.generators03.power_state
progress_check=1000000000
sids=
socket_id=0
ssids=
stream_gen=none
system=system
port=system.membus.cpu_side_ports[3]

[system.generators03.power_state]
type=PowerState
clk_gate_bins=20
clk_gate_max=1000000000000
clk_gate_min=1000
default_state=UNDEFINED
eventq_index=0
leaders=
possible_states=

[system.generators04]
type=PyTrafficGen
children=power_state
clk_domain=system.clk_domain
cpu_id=-1
elastic_req=false
eventq_index=0
max_outstanding_reqs=0
numThreads=1
power_model=
power_state=system.generators04.power_state
progress_check=1000000000
sids=
socket_id=0
ssids=
stream_gen=none
system=system
port=system.membus.cpu_side_ports[4]

[system.generators04.power_state]
type=PowerState
clk_gate_bins=20
clk_gate_max=1000000000000
clk_gate_min=1000
default_state=UNDEFINED
eventq_index=0
leaders=
possible_states=

[system.generators05]
type=PyTrafficGen
children=power_state
clk_domain=system.clk_domain
cpu_id=-1
elastic_req=false
eventq_index=0
max_outstanding_reqs=0
numThreads=1
power_model=
power_state=system.generators05.power_state
progress_check=1000000000
sids=
socket_id=0
ssids=
stream_gen=none
system=system
port=system.membus.cpu_side_ports[5]

[system.generators05.power_state]
type=PowerState
clk_gate_bins=20
clk_gate_max=1000000000000
clk_gate_min=1000
default_state=UNDEFINED
eventq_index=0
leaders=
possible_states=

[system.generators06]
type=PyTrafficGen
children=power_state
clk_domain=system.clk_domain
cpu_id=-1
elastic_req=false
eventq_index=0
max_outstanding_reqs=0
numThreads=1
power_model=
power_state=system.generators06.power_state
progress_check=1000000000
sids=
socket_id=0
ssids=
stream_gen=none
system=system
port=system.membus.cpu_side_ports[6]

[system.generators06.power_state]
type=PowerState
clk_gate_bins=20
clk_gate_max=1000000000000
clk_gate_min=1000
default_state=UNDEFINED
eventq_index=0
leaders=
possible_states=

[system.generators07]
type=PyTrafficGen
children=power_state
clk_domain=system.clk_domain
cpu_id=-1
elastic_req=false
eventq_index=0
max_outstanding_reqs=0
numThreads=1
power_model=
power_state=system.generators07.power_state
progress_check=1000000000
sids=
socket_id=0
ssids=
stream_gen=none
system=system
port=system.membus.cpu_side_ports[7]

[system.generators07.power_state]
type=PowerState
clk_gate_bins=20
clk_gate_max=1000000000000
clk_gate_min=1000
default_state=UNDEFINED
eventq_index=0
leaders=
possible_states=

[system.generators08]
type=PyTrafficGen
children=power_state
clk_domain=system.clk_domain
cpu_id=-1
elastic_req=false
eventq_index=0
max_outstanding_reqs=0
numThreads=1
power_model=
power_state=system.generators08.power_state
progress_check=1000000000
sids=
socket_id=0
ssids=
stream_gen=none
system=system
port=system.membus.cpu_side_ports[8]

[system.generators08.power_state]
type=PowerState
clk_gate_bins=20
clk_gate_max=1000000000000
clk_gate_min=1000
default_state=UNDEFINED
eventq_index=0
leaders=
possible_states=

[system.generators09]
type=PyTrafficGen
children=power_state
clk_domain=system.clk_domain
cpu_id=-1
elastic_req=false
eventq_index=0
max_outstanding_reqs=0
numThreads=1
power_model=
power_state=system.generators09.power_state
progress_check=1000000000
sids=
socket_id=0
ssids=
stream_gen=none
system=system
port=system.membus.cpu_side_ports[9]

[system.generators09.power_state]
type=PowerState
clk_gate_bins=20
clk_gate_max=1000000000000
clk_gate_min=1000
default_state=UNDEFINED
eventq_index=0
leaders=
possible_states=

[system.generators10]
type=PyTrafficGen
children=power_state
clk_domain=system.clk_domain
cpu_id=-1
elastic_req=false
eventq_index=0
max_outstanding_reqs=0
numThreads=1
power_model=
power_state=system.generators10.power_state
progress_check=1000000000
sids=
socket_id=0
ssids=
stream_gen=none
system=system
port=system.membus.cpu_side_ports[10]

[system.generators10.power_state]
type=PowerState
clk_gate_bins=20
clk_gate_max=1000000000000
clk_gate_min=1000
default_state=UNDEFINED
eventq_index=0
leaders=
possible_states=

[system.generators11]
type=PyTrafficGen
children=power_state
clk_domain=system.clk_domain
cpu_id=-1
elastic_req=false
eventq_index=0
max_outstanding_reqs=0
numThreads=1
power_model=
power_state=system.generators11.power_state
progress_check=1000000000
sids=
socket_id=0
ssids=
stream_gen=none
system=system
port=system.membus.cpu_side_ports[11]

[system.generators11.power_state]
type=PowerState
clk_gate_bins=20
clk_gate_max=1000000000000
clk_gate_min=1000
default_state=UNDEFINED
eventq_index=0
leaders=
possible_states=

[system.generators12]
type=PyTrafficGen
children=power_state
clk_domain=system.clk_domain
cpu_id=-1
elastic_req=false
eventq_index=0
max_outstanding_reqs=0
numThreads=1
power_model=
power_state=system.generators12.power_state
progress_check=1000000000
sids=
socket_id=0
ssids=
stream_gen=none
system=system
port=system.membus.cpu_side_ports[12]

[system.generators12.power_state]
type=PowerState
clk_gate_bins=20
clk_gate_max=1000000000000
clk_gate_min=1000
default_state=UNDEFINED
eventq_index=0
leaders=
possible_states=

[system.generators13]
type=PyTrafficGen
children=power_state
clk_domain=system.clk_domain
cpu_id=-1
elastic_req=false
eventq_index=0
max_outstanding_reqs=0
numThreads=1
power_model=
power_state=system.generators13.power_state
progress_check=1000000000
sids=
socket_id=0
ssids=
stream_gen=none
system=system
port=system.membus.cpu_side_ports[13]

[system.generators13.power_state]
type=PowerState
clk_gate_bins=20
clk_gate_max=1000000000000
clk_gate_min=1000
default_state=UNDEFINED
eventq_index=0
leaders=
possible_states=

[system.generators14]
type=PyTrafficGen
children=power_state
clk_domain=system.clk_domain
cpu_id=-1
elastic_req=false
eventq_index=0
max_outstanding_reqs=0
numThreads=1
power_model=
power_state=system.generators14.power_state
progress_check=1000000000
sids=
socket_id=0
ssids=
stream_gen=none
system=system
port=system.membus.cpu_side_ports[14]

[system.generators14.power_state]
type=PowerState
clk_gate_bins=20
clk_gate_max=1000000000000
clk_gate_min=1000
default_state=UNDEFINED
eventq_index=0
leaders=
possible_states=

[system.generators15]
type=PyTrafficGen
children=power_state
clk_domain=system.clk_domain
cpu_id=-1
elastic_req=false
eventq_index=0
max_outstanding_reqs=0
numThreads=1
power_model=
power_state=system.generators15.power_state
progress_check=1000000000
sids=
socket_id=0
ssids=
stream_gen=none
system=system
port=system.membus.cpu_side_ports[15]

[system.generators15.power_state]
type=PowerState
clk_gate_bins=20
clk_gate_max=1000000000000
clk_gate_min=1000
default_state=UNDEFINED
eventq_index=0
leaders=
possible_states=

[system.loc_mem_ctrlrs000]
type=MemCtrl
children=dram power_state
clk_domain=system.clk_domain
command_window=10000
disable_sanity_check=false
dram=system.loc_mem_ctrlrs000.dram
eventq_index=0
mem_sched_policy=frfcfs
min_reads_per_switch=16
min_writes_per_switch=16
power_model=
power_state=system.loc_mem_ctrlrs000.power_state
qos_policy=Null
qos_priorities=1
qos_priority_escalation=false
qos_q_policy=fifo
qos_requestors=               
qos_syncro_scheduler=false
qos_turnaround_policy=Null
static_backend_latency=10000
static_frontend_latency=10000
system=system
write_high_thresh_perc=85
write_low_thresh_perc=50
port=system.scheds000.mem_side[0]

[system.loc_mem_ctrlrs000.dram]
type=DRAMInterface
children=power_state
IDD0=0.0
IDD02=0.0
IDD2N=0.0
IDD2N2=0.0
IDD2P0=0.0
IDD2P02=0.0
IDD2P1=0.0
IDD2P12=0.0
IDD3N=0.0
IDD3N2=0.0
IDD3P0=0.0
IDD3P02=0.0
IDD3P1=0.0
IDD3P12=0.0
IDD4R=0.0
IDD4R2=0.0
IDD4W=0.0
IDD4W2=0.0
IDD5=0.0
IDD52=0.0
IDD6=0.0
IDD62=0.0
VDD=0.0
VDD2=0.0
activation_limit=32
addr_mapping=RoCoRaBaCh
bank_groups_per_rank=0
banks_per_rank=2
beats_per_clock=64
burst_length=512
clk_domain=system.clk_domain
conf_table_reported=true
data_clock_sync=false
device_bus_width=1
device_rowbuffer_size=256
device_size=4194304
devices_per_rank=1
dll=true
enable_dram_powerdown=false
eventq_index=0
image_file=
in_addr_map=false
kvm_map=true
max_accesses_per_row=16
null=true
page_policy=close
power_model=
power_state=system.loc_mem_ctrlrs000.dram.power_state
range=0:3221225472:0:64:128:256:512:1024:2048:4096:8192
ranks_per_channel=1
read_buffer_size=32
tAAD=2000
tBURST=16000
tBURST_MAX=4000
tBURST_MIN=2000
tCCD_L=15000
tCCD_L_WR=15000
tCK=2000
tCL=5000
tCS=0
tCWL=5000
tPPD=0
tRAS=15000
tRCD=8000
tRCD_WR=8000
tREFI=3900000
tRFC=160000
tRP=15000
tRRD=2000
tRRD_L=2000
tRTP=7000
tRTW=0
tWR=18000
tWTR=0
tWTR_L=0
tXAW=12000
tXP=8000
tXPDLL=0
tXS=168000
tXSDLL=0
two_cycle_activate=false
write_buffer_size=64

[system.loc_mem_ctrlrs000.dram.power_state]
type=PowerState
clk_gate_bins=20
clk_gate_max=1000000000000
clk_gate_min=1000
default_state=UNDEFINED
eventq_index=0
leaders=
possible_states=

[system.loc_mem_ctrlrs000.power_state]
type=PowerState
clk_gate_bins=20
clk_gate_max=1000000000000
clk_gate_min=1000
default_state=UNDEFINED
eventq_index=0
leaders=
possible_states=

[system.loc_mem_ctrlrs001]
type=MemCtrl
children=dram power_state
clk_domain=system.clk_domain
command_window=10000
disable_sanity_check=false
dram=system.loc_mem_ctrlrs001.dram
eventq_index=0
mem_sched_policy=frfcfs
min_reads_per_switch=16
min_writes_per_switch=16
power_model=
power_state=system.loc_mem_ctrlrs001.power_state
qos_policy=Null
qos_priorities=1
qos_priority_escalation=false
qos_q_policy=fifo
qos_requestors=               
qos_syncro_scheduler=false
qos_turnaround_policy=Null
static_backend_latency=10000
static_frontend_latency=10000
system=system
write_high_thresh_perc=85
write_low_thresh_perc=50
port=system.scheds001.mem_side[0]

[system.loc_mem_ctrlrs001.dram]
type=DRAMInterface
children=power_state
IDD0=0.0
IDD02=0.0
IDD2N=0.0
IDD2N2=0.0
IDD2P0=0.0
IDD2P02=0.0
IDD2P1=0.0
IDD2P12=0.0
IDD3N=0.0
IDD3N2=0.0
IDD3P0=0.0
IDD3P02=0.0
IDD3P1=0.0
IDD3P12=0.0
IDD4R=0.0
IDD4R2=0.0
IDD4W=0.0
IDD4W2=0.0
IDD5=0.0
IDD52=0.0
IDD6=0.0
IDD62=0.0
VDD=0.0
VDD2=0.0
activation_limit=32
addr_mapping=RoCoRaBaCh
bank_groups_per_rank=0
banks_per_rank=2
beats_per_clock=64
burst_length=512
clk_domain=system.clk_domain
conf_table_reported=true
data_clock_sync=false
device_bus_width=1
device_rowbuffer_size=256
device_size=4194304
devices_per_rank=1
dll=true
enable_dram_powerdown=false
eventq_index=0
image_file=
in_addr_map=false
kvm_map=true
max_accesses_per_row=16
null=true