[root]
type=Root
children=system
eventq_index=0
full_system=false
sim_quantum=0
time_sync_enable=false
time_sync_period=100000000000
time_sync_spin_threshold=100000000

[system]
type=System
children=clk_domain dvfs_handler far_mem_ctrl0 far_mem_ctrl1 generators00 generators01 generators02 generators03 generators04 generators05 generators06 generators07 generators08 generators09 generators10 generators11 generators12 generators13 generators14 generators15 generators16 generators17 generators18 generators19 generators20 generators21 generators22 generators23 generators24 generators25 generators26 generators27 generators28 generators29 generators30 generators31 loc_mem_ctrlrs0 loc_mem_ctrlrs1 mem_ctrl0 mem_ctrl1 membus workload
auto_unlink_shared_backstore=false
cache_line_size=64
eventq_index=0
exit_on_work_items=false
init_param=0
m5ops_base=0
mem_mode=timing
mem_ranges=
memories=system.far_mem_ctrl0.dram system.far_mem_ctrl1.dram system.loc_mem_ctrlrs0.dram system.loc_mem_ctrlrs1.dram system.mem_ctrl0 system.mem_ctrl1
mmap_using_noreserve=false
multi_thread=false
num_work_ids=16
readfile=
redirect_paths=
shadow_rom_ranges=
shared_backstore=
symbolfile=
thermal_components=
thermal_model=Null
work_begin_ckpt_count=0
work_begin_cpu_id_exit=-1
work_begin_exit_count=0
work_cpus_ckpt_count=0
work_end_ckpt_count=0
work_end_exit_count=0
work_item_id=-1
workload=system.workload

[system.clk_domain]
type=SrcClockDomain
children=voltage_domain
clock=200
domain_id=-1
eventq_index=0
init_perf_level=0
voltage_domain=system.clk_domain.voltage_domain

[system.clk_domain.voltage_domain]
type=VoltageDomain
eventq_index=0
voltage=1.0

[system.dvfs_handler]
type=DVFSHandler
domains=
enable=false
eventq_index=0
sys_clk_domain=system.clk_domain
transition_latency=100000000

[system.far_mem_ctrl0]
type=MemCtrl
children=dram power_state
clk_domain=system.clk_domain
command_window=10000
disable_sanity_check=false
dram=system.far_mem_ctrl0.dram
eventq_index=0
mem_sched_policy=frfcfs
min_reads_per_switch=16
min_writes_per_switch=16
power_model=
power_state=system.far_mem_ctrl0.power_state
qos_policy=Null
qos_priorities=1
qos_priority_escalation=false
qos_q_policy=fifo
qos_requestors=               
qos_syncro_scheduler=false
qos_turnaround_policy=Null
static_backend_latency=10000
static_frontend_latency=10000
system=system
write_high_thresh_perc=85
write_low_thresh_perc=50
port=system.mem_ctrl0.far_req_port

[system.far_mem_ctrl0.dram]
type=NVMInterface
children=power_state
addr_mapping=RoRaBaCoCh
banks_per_rank=16
burst_length=8
clk_domain=system.clk_domain
conf_table_reported=true
device_bus_width=64
device_rowbuffer_size=256
device_size=549755813888
devices_per_rank=1
eventq_index=0
image_file=
in_addr_map=false
kvm_map=true
max_pending_reads=64
max_pending_writes=128
null=true
power_model=
power_state=system.far_mem_ctrl0.dram.power_state
range=0:4294967296
ranks_per_channel=1
read_buffer_size=128
tBURST=3332
tCK=833
tCS=1666
tREAD=150000
tRTW=1666
tSEND=14160
tWRITE=500000
tWTR=1666
two_cycle_rdwr=true
write_buffer_size=128

[system.far_mem_ctrl0.dram.power_state]
type=PowerState
clk_gate_bins=20
clk_gate_max=1000000000000
clk_gate_min=1000
default_state=UNDEFINED
eventq_index=0
leaders=
possible_states=

[system.far_mem_ctrl0.power_state]
type=PowerState
clk_gate_bins=20
clk_gate_max=1000000000000
clk_gate_min=1000
default_state=UNDEFINED
eventq_index=0
leaders=
possible_states=

[system.far_mem_ctrl1]
type=MemCtrl
children=dram power_state
clk_domain=system.clk_domain
command_window=10000
disable_sanity_check=false
dram=system.far_mem_ctrl1.dram
eventq_index=0
mem_sched_policy=frfcfs
min_reads_per_switch=16
min_writes_per_switch=16
power_model=
power_state=system.far_mem_ctrl1.power_state
qos_policy=Null
qos_priorities=1
qos_priority_escalation=false
qos_q_policy=fifo
qos_requestors=               
qos_syncro_scheduler=false
qos_turnaround_policy=Null
static_backend_latency=10000
static_frontend_latency=10000
system=system
write_high_thresh_perc=85
write_low_thresh_perc=50
port=system.mem_ctrl1.far_req_port

[system.far_mem_ctrl1.dram]
type=NVMInterface
children=power_state
addr_mapping=RoRaBaCoCh
banks_per_rank=16
burst_length=8
clk_domain=system.clk_domain
conf_table_reported=true
device_bus_width=64
device_rowbuffer_size=256
device_size=549755813888
devices_per_rank=1
eventq_index=0
image_file=
in_addr_map=false
kvm_map=true
max_pending_reads=64
max_pending_writes=128
null=true
power_model=
power_state=system.far_mem_ctrl1.dram.power_state
range=4294967296:8589934592
ranks_per_channel=1
read_buffer_size=128
tBURST=3332
tCK=833
tCS=1666
tREAD=150000
tRTW=1666
tSEND=14160
tWRITE=500000
tWTR=1666
two_cycle_rdwr=true
write_buffer_size=128

[system.far_mem_ctrl1.dram.power_state]
type=PowerState
clk_gate_bins=20
clk_gate_max=1000000000000
clk_gate_min=1000
default_state=UNDEFINED
eventq_index=0
leaders=
possible_states=

[system.far_mem_ctrl1.power_state]
type=PowerState
clk_gate_bins=20
clk_gate_max=1000000000000
clk_gate_min=1000
default_state=UNDEFINED
eventq_index=0
leaders=
possible_states=

[system.generators00]
type=PyTrafficGen
children=power_state
clk_domain=system.clk_domain
cpu_id=-1
elastic_req=false
eventq_index=0
max_outstanding_reqs=0
numThreads=1
power_model=
power_state=system.generators00.power_state
progress_check=1000000000
sids=
socket_id=0
ssids=
stream_gen=none
system=system
port=system.membus.cpu_side_ports[0]

[system.generators00.power_state]
type=PowerState
clk_gate_bins=20
clk_gate_max=1000000000000
clk_gate_min=1000
default_state=UNDEFINED
eventq_index=0
leaders=
possible_states=

[system.generators01]
type=PyTrafficGen
children=power_state
clk_domain=system.clk_domain
cpu_id=-1
elastic_req=false
eventq_index=0
max_outstanding_reqs=0
numThreads=1
power_model=
power_state=system.generators01.power_state
progress_check=1000000000
sids=
socket_id=0
ssids=
stream_gen=none
system=system
port=system.membus.cpu_side_ports[1]

[system.generators01.power_state]
type=PowerState
clk_gate_bins=20
clk_gate_max=1000000000000
clk_gate_min=1000
default_state=UNDEFINED
eventq_index=0
leaders=
possible_states=

[system.generators02]
type=PyTrafficGen
children=power_state
clk_domain=system.clk_domain
cpu_id=-1
elastic_req=false
eventq_index=0
max_outstanding_reqs=0
numThreads=1
power_model=
power_state=system.generators02.power_state
progress_check=1000000000
sids=
socket_id=0
ssids=
stream_gen=none
system=system
port=system.membus.cpu_side_ports[2]

[system.generators02.power_state]
type=PowerState
clk_gate_bins=20
clk_gate_max=1000000000000
clk_gate_min=1000
default_state=UNDEFINED
eventq_index=0
leaders=
possible_states=

[system.generators03]
type=PyTrafficGen
children=power_state
clk_domain=system.clk_domain
cpu_id=-1
elastic_req=false
eventq_index=0
max_outstanding_reqs=0
numThreads=1
power_model=
power_state=system.generators03.power_state
progress_check=1000000000
sids=
socket_id=0
ssids=
stream_gen=none
system=system
port=system.membus.cpu_side_ports[3]

[system.generators03.power_state]
type=PowerState
clk_gate_bins=20
clk_gate_max=1000000000000
clk_gate_min=1000
default_state=UNDEFINED
eventq_index=0
leaders=
possible_states=

[system.generators04]
type=PyTrafficGen
children=power_state
clk_domain=system.clk_domain
cpu_id=-1
elastic_req=false
eventq_index=0
max_outstanding_reqs=0
numThreads=1
power_model=
power_state=system.generators04.power_state
progress_check=1000000000
sids=
socket_id=0
ssids=
stream_gen=none
system=system
port=system.membus.cpu_side_ports[4]

[system.generators04.power_state]
type=PowerState
clk_gate_bins=20
clk_gate_max=1000000000000
clk_gate_min=1000
default_state=UNDEFINED
eventq_index=0
leaders=
possible_states=

[system.generators05]
type=PyTrafficGen
children=power_state
clk_domain=system.clk_domain
cpu_id=-1
elastic_req=false
eventq_index=0
max_outstanding_reqs=0
numThreads=1
power_model=
power_state=system.generators05.power_state
progress_check=1000000000
sids=
socket_id=0
ssids=
stream_gen=none
system=system
port=system.membus.cpu_side_ports[5]

[system.generators05.power_state]
type=PowerState
clk_gate_bins=20
clk_gate_max=1000000000000
clk_gate_min=1000
default_state=UNDEFINED
eventq_index=0
leaders=
possible_states=

[system.generators06]
type=PyTrafficGen
children=power_state
clk_domain=system.clk_domain
cpu_id=-1
elastic_req=false
eventq_index=0
max_outstanding_reqs=0
numThreads=1
power_model=
power_state=system.generators06.power_state
progress_check=1000000000
sids=
socket_id=0
ssids=
stream_gen=none
system=system
port=system.membus.cpu_side_ports[6]

[system.generators06.power_state]
type=PowerState
clk_gate_bins=20
clk_gate_max=1000000000000
clk_gate_min=1000
default_state=UNDEFINED
eventq_index=0
leaders=
possible_states=

[system.generators07]
type=PyTrafficGen
children=power_state
clk_domain=system.clk_domain
cpu_id=-1
elastic_req=false
eventq_index=0
max_outstanding_reqs=0
numThreads=1
power_model=
power_state=system.generators07.power_state
progress_check=1000000000
sids=
socket_id=0
ssids=
stream_gen=none
system=system
port=system.membus.cpu_side_ports[7]

[system.generators07.power_state]
type=PowerState
clk_gate_bins=20
clk_gate_max=1000000000000
clk_gate_min=1000
default_state=UNDEFINED
eventq_index=0
leaders=
possible_states=

[system.generators08]
type=PyTrafficGen
children=power_state
clk_domain=system.clk_domain
cpu_id=-1
elastic_req=false
eventq_index=0
max_outstanding_reqs=0
numThreads=1
power_model=
power_state=system.generators08.power_state
progress_check=1000000000
sids=
socket_id=0
ssids=
stream_gen=none
system=system
port=system.membus.cpu_side_ports[8]

[system.generators08.power_state]
type=PowerState
clk_gate_bins=20
clk_gate_max=1000000000000
clk_gate_min=1000
default_state=UNDEFINED
eventq_index=0
leaders=
possible_states=

[system.generators09]
type=PyTrafficGen
children=power_state
clk_domain=system.clk_domain
cpu_id=-1
elastic_req=false
eventq_index=0
max_outstanding_reqs=0
numThreads=1
power_model=
power_state=system.generators09.power_state
progress_check=1000000000
sids=
socket_id=0
ssids=
stream_gen=none
system=system
port=system.membus.cpu_side_ports[9]

[system.generators09.power_state]
type=PowerState
clk_gate_bins=20
clk_gate_max=1000000000000
clk_gate_min=1000
default_state=UNDEFINED
eventq_index=0
leaders=
possible_states=

[system.generators10]
type=PyTrafficGen
children=power_state
clk_domain=system.clk_domain
cpu_id=-1
elastic_req=false
eventq_index=0
max_outstanding_reqs=0
numThreads=1
power_model=
power_state=system.generators10.power_state
progress_check=1000000000
sids=
socket_id=0
ssids=
stream_gen=none
system=system
port=system.membus.cpu_side_ports[10]

[system.generators10.power_state]
type=PowerState
clk_gate_bins=20
clk_gate_max=1000000000000
clk_gate_min=1000
default_state=UNDEFINED
eventq_index=0
leaders=
possible_states=

[system.generators11]
type=PyTrafficGen
children=power_state
clk_domain=system.clk_domain
cpu_id=-1
elastic_req=false
eventq_index=0
max_outstanding_reqs=0
numThreads=1
power_model=
power_state=system.generators11.power_state
progress_check=1000000000
sids=
socket_id=0
ssids=
stream_gen=none
system=system
port=system.membus.cpu_side_ports[11]

[system.generators11.power_state]
type=PowerState
clk_gate_bins=20
clk_gate_max=1000000000000
clk_gate_min=1000
default_state=UNDEFINED
eventq_index=0
leaders=
possible_states=

[system.generators12]
type=PyTrafficGen
children=power_state
clk_domain=system.clk_domain
cpu_id=-1
elastic_req=false
eventq_index=0
max_outstanding_reqs=0
numThreads=1
power_model=
power_state=system.generators12.power_state
progress_check=1000000000
sids=
socket_id=0
ssids=
stream_gen=none
system=system
port=system.membus.cpu_side_ports[12]

[system.generators12.power_state]
type=PowerState
clk_gate_bins=20
clk_gate_max=1000000000000
clk_gate_min=1000
default_state=UNDEFINED
eventq_index=0
leaders=
possible_states=

[system.generators13]
type=PyTrafficGen
children=power_state
clk_domain=system.clk_domain
cpu_id=-1
elastic_req=false
eventq_index=0
max_outstanding_reqs=0
numThreads=1
power_model=
power_state=system.generators13.power_state
progress_check=1000000000
sids=
socket_id=0
ssids=
stream_gen=none
system=system
port=system.membus.cpu_side_ports[13]

[system.generators13.power_state]
type=PowerState
clk_gate_bins=20
clk_gate_max=1000000000000
clk_gate_min=1000
default_state=UNDEFINED
eventq_index=0
leaders=
possible_states=

[system.generators14]
type=PyTrafficGen
children=power_state
clk_domain=system.clk_domain
cpu_id=-1
elastic_req=false
eventq_index=0
max_outstanding_reqs=0
numThreads=1
power_model=
power_state=system.generators14.power_state
progress_check=1000000000
sids=
socket_id=0
ssids=
stream_gen=none
system=system
port=system.membus.cpu_side_ports[14]

[system.generators14.power_state]
type=PowerState
clk_gate_bins=20
clk_gate_max=1000000000000
clk_gate_min=1000
default_state=UNDEFINED
eventq_index=0
leaders=
possible_states=

[system.generators15]
type=PyTrafficGen
children=power_state
clk_domain=system.clk_domain
cpu_id=-1
elastic_req=false
eventq_index=0
max_outstanding_reqs=0
numThreads=1
power_model=
power_state=system.generators15.power_state
progress_check=1000000000
sids=
socket_id=0
ssids=
stream_gen=none
system=system
port=system.membus.cpu_side_ports[15]

[system.generators15.power_state]
type=PowerState
clk_gate_bins=20
clk_gate_max=1000000000000
clk_gate_min=1000
default_state=UNDEFINED
eventq_index=0
leaders=
possible_states=

[system.generators16]
type=PyTrafficGen
children=power_state
clk_domain=system.clk_domain
cpu_id=-1
elastic_req=false
eventq_index=0
max_outstanding_reqs=0
numThreads=1
power_model=
power_state=system.generators16.power_state
progress_check=1000000000
sids=
socket_id=0
ssids=
stream_gen=none
system=system
port=system.membus.cpu_side_ports[16]

[system.generators16.power_state]
type=PowerState
clk_gate_bins=20
clk_gate_max=1000000000000
clk_gate_min=1000
default_state=UNDEFINED
eventq_index=0
leaders=
possible_states=

[system.generators17]
type=PyTrafficGen
children=power_state
clk_domain=system.clk_domain
cpu_id=-1
elastic_req=false
eventq_index=0
max_outstanding_reqs=0
numThreads=1
power_model=
power_state=system.generators17.power_state
progress_check=1000000000
sids=
socket_id=0
ssids=
stream_gen=none
system=system
port=system.membus.cpu_side_ports[17]

[system.generators17.power_state]
type=PowerState
clk_gate_bins=20
clk_gate_max=1000000000000
clk_gate_min=1000
default_state=UNDEFINED
eventq_index=0
leaders=
possible_states=

[system.generators18]
type=PyTrafficGen
children=power_state
clk_domain=system.clk_domain
cpu_id=-1
elastic_req=false
eventq_index=0
max_outstanding_reqs=0
numThreads=1
power_model=
power_state=system.generators18.power_state
progress_check=1000000000
sids=
socket_id=0
ssids=
stream_gen=none
system=system
port=system.membus.cpu_side_ports[18]

[system.generators18.power_state]
type=PowerState
clk_gate_bins=20
clk_gate_max=1000000000000
clk_gate_min=1000
default_state=UNDEFINED
eventq_index=0
leaders=
possible_states=

[system.generators19]
type=PyTrafficGen
children=power_state
clk_domain=system.clk_domain
cpu_id=-1
elastic_req=false
eventq_index=0
max_outstanding_reqs=0
numThreads=1
power_model=
power_state=system.generators19.power_state
progress_check=1000000000
sids=
socket_id=0
ssids=
stream_gen=none
system=system
port=system.membus.cpu_side_ports[19]

[system.generators19.power_state]
type=PowerState
clk_gate_bins=20
clk_gate_max=1000000000000
clk_gate_min=1000
default_state=UNDEFINED
eventq_index=0
leaders=
possible_states=

[system.generators20]
type=PyTrafficGen
children=power_state
clk_domain=system.clk_domain
cpu_id=-1
elastic_req=false
eventq_index=0
max_outstanding_reqs=0
numThreads=1
power_model=
power_state=system.generators20.power_state
progress_check=1000000000
sids=
socket_id=0
ssids=
stream_gen=none
system=system
port=system.membus.cpu_side_ports[20]

[system.generators20.power_state]
type=PowerState
clk_gate_bins=20
clk_gate_max=1000000000000
clk_gate_min=1000
default_state=UNDEFINED
eventq_index=0
leaders=
possible_states=

[system.generators21]
type=PyTrafficGen
children=power_state
clk_domain=system.clk_domain
cpu_id=-1
elastic_req=false
eventq_index=0
max_outstanding_reqs=0
numThreads=1
power_model=
power_state=system.generators21.power_state
progress_check=1000000000
sids=
socket_id=0
ssids=
stream_gen=none
system=system
port=system.membus.cpu_side_ports[21]

[system.generators21.power_state]
type=PowerState
clk_gate_bins=20
clk_gate_max=1000000000000
clk_gate_min=1000
default_state=UNDEFINED
eventq_index=0
leaders=
possible_states=

[system.generators22]
type=PyTrafficGen
children=power_state
clk_domain=system.clk_domain
cpu_id=-1
elastic_req=false
eventq_index=0
max_outstanding_reqs=0
numThreads=1
power_model=
power_state=system.generators22.power_state
progress_check=1000000000
sids=
socket_id=0
ssids=
stream_gen=none
system=system
port=system.membus.cpu_side_ports[22]

[system.generators22.power_state]
type=PowerState
clk_gate_bins=20
clk_gate_max=1000000000000
clk_gate_min=1000
default_state=UNDEFINED
eventq_index=0
leaders=
possible_states=

[system.generators23]
type=PyTrafficGen
children=power_state
clk_domain=system.clk_domain
cpu_id=-1
elastic_req=false
eventq_index=0
max_outstanding_reqs=0
numThreads=1
power_model=
power_state=system.generators23.power_state
progress_check=1000000000
sids=
socket_id=0
ssids=
stream_gen=none
system=system
port=system.membus.cpu_side_ports[23]

[system.generators23.power_state]
type=PowerState
clk_gate_bins=20
clk_gate_max=1000000000000
clk_gate_min=1000
default_state=UNDEFINED
eventq_index=0
leaders=
possible_states=

[system.generators24]
type=PyTrafficGen
children=power_state
clk_domain=system.clk_domain
cpu_id=-1
elastic_req=false
eventq_index=0
max_outstanding_reqs=0
numThreads=1
power_model=
power_state=system.generators24.power_state
progress_check=1000000000
sids=
socket_id=0
ssids=
stream_gen=none
system=system
port=system.membus.cpu_side_ports[24]

[system.generators24.power_state]
type=PowerState
clk_gate_bins=20
clk_gate_max=1000000000000
clk_gate_min=1000
default_state=UNDEFINED
eventq_index=0
leaders=
possible_states=

[system.generators25]
type=PyTrafficGen
children=power_state
clk_domain=system.clk_domain
cpu_id=-1
elastic_req=false
eventq_index=0
max_outstanding_reqs=0
numThreads=1
power_model=
power_state=system.generators25.power_state
progress_check=1000000000
sids=
socket_id=0
ssids=
stream_gen=none
system=system
port=system.membus.cpu_side_ports[25]

[system.generators25.power_state]
type=PowerState
clk_gate_bins=20
clk_gate_max=1000000000000
clk_gate_min=1000
default_state=UNDEFINED
eventq_index=0
leaders=
possible_states=

[system.generators26]
type=PyTrafficGen
children=power_state
clk_domain=system.clk_domain
cpu_id=-1
elastic_req=false
eventq_index=0
max_outstanding_reqs=0
numThreads=1
power_model=
power_state=system.generators26.power_state
progress_check=1000000000
sids=
socket_id=0
ssids=
stream_gen=none
system=system
port=system.membus.cpu_side_ports[26]

[system.generators26.power_state]
type=PowerState
clk_gate_bins=20
clk_gate_max=1000000000000
clk_gate_min=1000
default_state=UNDEFINED
eventq_index=0
leaders=
possible_states=

[system.generators27]
type=PyTrafficGen
children=power_state
clk_domain=system.clk_domain
cpu_id=-1
elastic_req=false
eventq_index=0
max_outstanding_reqs=0
numThreads=1
power_model=
power_state=system.generators27.power_state
progress_check=1000000000
sids=
socket_id=0
ssids=
stream_gen=none
system=system
port=system.membus.cpu_side_ports[27]

[system.generators27.power_state]
type=PowerState
clk_gate_bins=20
clk_gate_max=1000000000000
clk_gate_min=1000
default_state=UNDEFINED
eventq_index=0
leaders=
possible_states=

[system.generators28]
type=PyTrafficGen
children=power_state
clk_domain=system.clk_domain
cpu_id=-1
elastic_req=false
eventq_index=0
max_outstanding_reqs=0
numThreads=1
power_model=
power_state=system.generators28.power_state
progress_check=1000000000
sids=
socket_id=0
ssids=
stream_gen=none
system=system
port=system.membus.cpu_side_ports[28]

[system.generators28.power_state]
type=PowerState
clk_gate_bins=20
clk_gate_max=1000000000000
clk_gate_min=1000
default_state=UNDEFINED
eventq_index=0
leaders=
possible_states=

[system.generators29]
type=PyTrafficGen
children=power_state
clk_domain=system.clk_domain
cpu_id=-1
elastic_req=false
eventq_index=0
max_outstanding_reqs=0
numThreads=1
power_model=
power_state=system.generators29.power_state
progress_check=1000000000
sids=
socket_id=0
ssids=
stream_gen=none
system=system
port=system.membus.cpu_side_ports[29]

[system.generators29.power_state]
type=PowerState
clk_gate_bins=20
clk_gate_max=1000000000000
clk_gate_min=1000
default_state=UNDEFINED
eventq_index=0
leaders=
possible_states=

[system.generators30]
type=PyTrafficGen
children=power_state
clk_domain=system.clk_domain
cpu_id=-1
elastic_req=false
eventq_index=0
max_outstanding_reqs=0
numThreads=1
power_model=
power_state=system.generators30.power_state
progress_check=1000000000
sids=
socket_id=0
ssids=
stream_gen=none
system=system
port=system.membus.cpu_side_ports[30]

[system.generators30.power_state]
type=PowerState
clk_gate_bins=20
clk_gate_max=1000000000000
clk_gate_min=1000
default_state=UNDEFINED
eventq_index=0
leaders=
possible_states=

[system.generators31]
type=PyTrafficGen
children=power_state
clk_domain=system.clk_domain
cpu_id=-1
elastic_req=false
eventq_index=0
max_outstanding_reqs=0
numThreads=1
power_model=
power_state=system.generators31.power_state
progress_check=1000000000
sids=
socket_id=0
ssids=
stream_gen=none
system=system
port=system.membus.cpu_side_ports[31]

[system.generators31.power_state]
type=PowerState
clk_gate_bins=20
clk_gate_max=1000000000000
clk_gate_min=1000
default_state=UNDEFINED
eventq_index=0
leaders=
possible_states=

[system.loc_mem_ctrlrs0]
type=MemCtrl
children=dram power_state
clk_domain=system.clk_domain
command_window=10000
disable_sanity_check=false
dram=system.loc_mem_ctrlrs0.dram
eventq_index=0
mem_sched_policy=frfcfs
min_reads_per_switch=16
min_writes_per_switch=16
power_model=
power_state=system.loc_mem_ctrlrs0.power_state
qos_policy=Null
qos_priorities=1
qos_priority_escalation=false
qos_q_policy=fifo
qos_requestors=               
qos_syncro_scheduler=false
qos_turnaround_policy=Null
static_backend_latency=10000
static_frontend_latency=10000
system=system
write_high_thresh_perc=85
write_low_thresh_perc=50
port=system.mem_ctrl0.loc_req_port

[system.loc_mem_ctrlrs0.dram]
type=DRAMInterface
children=power_state
IDD0=0.0
IDD02=0.0
IDD2N=0.0
IDD2N2=0.0
IDD2P0=0.0
IDD2P02=0.0
IDD2P1=0.0
IDD2P12=0.0
IDD3N=0.0
IDD3N2=0.0
IDD3P0=0.0
IDD3P02=0.0
IDD3P1=0.0
IDD3P12=0.0
IDD4R=0.0
IDD4R2=0.0
IDD4W=0.0
IDD4W2=0.0
IDD5=0.0
IDD52=0.0
IDD6=0.0
IDD62=0.0
VDD=0.0
VDD2=0.0
activation_limit=4
addr_mapping=RoRaBaCoCh
bank_groups_per_rank=0
banks_per_rank=8
beats_per_clock=2
burst_length=4
clk_domain=system.clk_domain
conf_table_reported=true
data_clock_sync=false
device_bus_width=128
device_rowbuffer_size=2048
device_size=134217728
devices_per_rank=1
dll=true
enable_dram_powerdown=false
eventq_index=0
image_file=
in_addr_map=false
kvm_map=true
max_accesses_per_row=16
null=true
page_policy=open_adaptive
power_model=
power_state=system.loc_mem_ctrlrs0.dram.power_state
range=0:4294967296
ranks_per_channel=1
read_buffer_size=32
tAAD=2000
tBURST=4000
tBURST_MAX=4000
tBURST_MIN=4000
tCCD_L=0
tCCD_L_WR=0
tCK=2000
tCL=15000
tCS=0
tCWL=15000
tPPD=0
tRAS=33000
tRCD=15000
tRCD_WR=15000
tREFI=3900000
tRFC=160000
tRP=15000
tRRD=4000
tRRD_L=0
tRTP=7500
tRTW=4000
tWR=18000
tWTR=10000
tWTR_L=10000
tXAW=30000
tXP=8000
tXPDLL=0
tXS=168000
tXSDLL=0
two_cycle_activate=false
write_buffer_size=64

[system.loc_mem_ctrlrs0.dram.power_state]
type=PowerState
clk_gate_bins=20
clk_gate_max=1000000000000
clk_gate_min=1000
default_state=UNDEFINED
eventq_index=0
leaders=
possible_states=

[system.loc_mem_ctrlrs0.power_state]
type=PowerState
clk_gate_bins=20
clk_gate_max=1000000000000
clk_gate_min=1000
default_state=UNDEFINED
eventq_index=0
leaders=
possible_states=

[system.loc_mem_ctrlrs1]
type=MemCtrl
children=dram power_state
clk_domain=system.clk_domain
command_window=10000
disable_sanity_check=false
dram=system.loc_mem_ctrlrs1.dram
eventq_index=0
mem_sched_policy=frfcfs
min_reads_per_switch=16
min_writes_per_switch=16
power_model=
power_state=system.loc_mem_ctrlrs1.power_state
qos_policy=Null
qos_priorities=1
qos_priority_escalation=false
qos_q_policy=fifo
qos_requestors=               
qos_syncro_scheduler=false
qos_turnaround_policy=Null
static_backend_latency=10000
static_frontend_latency=10000
system=system
write_high_thresh_perc=85
write_low_thresh_perc=50
port=system.mem_ctrl1.loc_req_port

[system.loc_mem_ctrlrs1.dram]
type=DRAMInterface
children=power_state
IDD0=0.0
IDD02=0.0
IDD2N=0.0
IDD2N2=0.0
IDD2P0=0.0
IDD2P02=0.0
IDD2P1=0.0
IDD2P12=0.0
IDD3N=0.0
IDD3N2=0.0
IDD3P0=0.0
IDD3P02=0.0
IDD3P1=0.0
IDD3P12=0.0
IDD4R=0.0
IDD4R2=0.0
IDD4W=0.0
IDD4W2=0.0
IDD5=0.0
IDD52=0.0
IDD6=0.0
IDD62=0.0
VDD=0.0
VDD2=0.0
activation_limit=4
addr_mapping=RoRaBaCoCh
bank_groups_per_rank=0
banks_per_rank=8
beats_per_clock=2
burst_length=4
clk_domain=system.clk_domain
conf_table_reported=true
data_clock_sync=false
device_bus_width=128
device_rowbuffer_size=2048
device_size=134217728
devices_per_rank=1
dll=true
enable_dram_powerdown=false
eventq_index=0
image_file=
in_addr_map=false
kvm_map=true
max_accesses_per_row=16
null=true
page_policy=open_adaptive
power_model=
power_state=system.loc_mem_ctrlrs1.dram.power_state
range=4294967296:8589934592
ranks_per_channel=1
read_buffer_size=32
tAAD=2000
tBURST=4000
tBURST_MAX=4000
tBURST_MIN=4000
tCCD_L=0
tCCD_L_WR=0
tCK=2000
tCL=15000
tCS=0
tCWL=15000
tPPD=0
tRAS=33000
tRCD=15000
tRCD_WR=15000
tREFI=3900000
tRFC=160000
tRP=15000
tRRD=4000
tRRD_L=0
tRTP=7500
tRTW=4000
tWR=18000
tWTR=10000
tWTR_L=10000
tXAW=30000
tXP=8000
tXPDLL=0
tXS=168000
tXSDLL=0
two_cycle_activate=false
write_buffer_size=64

[system.loc_mem_ctrlrs1.dram.power_state]
type=PowerState
clk_gate_bins=20
clk_gate_max=1000000000000
clk_gate_min=1000
default_state=UNDEFINED
eventq_index=0
leaders=
possible_states=

[system.loc_mem_ctrlrs1.power_state]
type=PowerState
clk_gate_bins=20
clk_gate_max=1000000000000
clk_gate_min=1000
default_state=UNDEFINED
eventq_index=0
leaders=
possible_states=

[system.mem_ctrl0]
type=PolicyManager
children=power_state
addr_size=64
always_dirty=false
always_hit=false
block_size=64
cache_warmup_ratio=0.7
clk_domain=system.clk_domain
conf_table_reported=true
crb_max_size=32
dram_cache_size=1048576
eventq_index=0
far_burst_size=64
image_file=
in_addr_map=true
kvm_map=true
loc_burst_size=64
loc_mem_policy=CascadeLakeNoPartWrs
null=false
orb_max_size=256
power_model=
power_state=system.mem_ctrl0.power_state
range=0:4294967296
static_backend_latency=10000
static_frontend_latency=10000
tRCD_RD=14160
tRL=14160
tRP=14160
far_req_port=system.far_mem_ctrl0.port
loc_req_port=system.loc_mem_ctrlrs0.port
port=system.membus.mem_side_ports[0]

[system.mem_ctrl0.power_state]
type=PowerState
clk_gate_bins=20
clk_gate_max=1000000000000
clk_gate_min=1000
default_state=UNDEFINED
eventq_index=0
leaders=
possible_states=

[system.mem_ctrl1]
type=PolicyManager
children=power_state
addr_size=64
always_dirty=false
always_hit=false
block_size=64
cache_warmup_ratio=0.7
clk_domain=system.clk_domain
conf_table_reported=true
crb_max_size=32
dram_cache_size=1048576
eventq_index=0
far_burst_size=64
image_file=
in_addr_map=true
kvm_map=true
loc_burst_size=64
loc_mem_policy=CascadeLakeNoPartWrs
null=false
orb_max_size=256
power_model=
power_state=system.mem_ctrl1.power_state
range=4294967296:8589934592
static_backend_latency=10000
static_frontend_latency=10000
tRCD_RD=14160
tRL=14160
tRP=14160
far_req_port=system.far_mem_ctrl1.port
loc_req_port=system.loc_mem_ctrlrs1.port
port=system.membus.mem_side_ports[1]

[system.mem_ctrl1.power_state]
type=PowerState
clk_gate_bins=20
clk_gate_max=1000000000000
clk_gate_min=1000
default_state=UNDEFINED
eventq_index=0
leaders=
possible_states=

[system.membus]
type=NoncoherentXBar
children=power_state
clk_domain=system.clk_domain
eventq_index=0
forward_latency=1
frontend_latency=1
header_latency=1
power_model=
power_state=system.membus.power_state
response_latency=1
use_default_range=false
width=64
cpu_side_ports=system.generators00.port system.generators01.port system.generators02.port system.generators03.port system.generators04.port system.generators05.port system.generators06.port system.generators07.port system.generators08.port system.generators09.port system.generators10.port system.generators11.port system.generators12.port system.generators13.port system.generators14.port system.generators15.port system.generators16.port system.generators17.port system.generators18.port system.generators19.port system.generators20.port system.generators21.port system.generators22.port system.generators23.port system.generators24.port system.generators25.port system.generators26.port system.generators27.port system.generators28.port system.generators29.port system.generators30.port system.generators31.port
mem_side_ports=system.mem_ctrl0.port system.mem_ctrl1.port

[system.membus.power_state]
type=PowerState
clk_gate_bins=20
clk_gate_max=1000000000000
clk_gate_min=1000
default_state=UNDEFINED
eventq_index=0
leaders=
possible_states=

[system.workload]
type=StubWorkload
byte_order=little
entry=0
eventq_index=0
remote_gdb_port=7000
wait_for_remote_gdb=false

